
---------- Begin Simulation Statistics ----------
final_tick                               1709551717000                       # Number of ticks from beginning of simulation (restored from checkpoints and never reset)
host_inst_rate                                 417360                       # Simulator instruction rate (inst/s)
host_mem_usage                                 664132                       # Number of bytes of host memory used
host_op_rate                                   765873                       # Simulator op (including micro ops) rate (op/s)
host_seconds                                   712.08                       # Real time elapsed on the host
host_tick_rate                             2400777561                       # Simulator tick rate (ticks/s)
sim_freq                                 1000000000000                       # Frequency of simulated ticks
sim_insts                                   297180982                       # Number of instructions simulated
sim_ops                                     545364538                       # Number of ops (including micro ops) simulated
sim_seconds                                  1.709552                       # Number of seconds simulated
sim_ticks                                1709551717000                       # Number of ticks simulated
system.cpu.Branches                          49473264                       # Number of branches fetched
system.cpu.committedInsts                   297180982                       # Number of instructions committed
system.cpu.committedOps                     545364538                       # Number of ops (including micro ops) committed
system.cpu.idle_fraction                     0.000000                       # Percentage of idle cycles
system.cpu.not_idle_fraction                 1.000000                       # Percentage of non-idle cycles
system.cpu.numCycles                       1709551717                       # number of cpu cycles simulated
system.cpu.numWorkItemsCompleted                    0                       # number of work items this cpu completed
system.cpu.numWorkItemsStarted                      0                       # number of work items this cpu started
system.cpu.num_busy_cycles               1709551716.999000                       # Number of busy cycles
system.cpu.num_cc_register_reads            252086564                       # number of times the CC registers were read
system.cpu.num_cc_register_writes           180867038                       # number of times the CC registers were written
system.cpu.num_conditional_control_insts     49270092                       # number of instructions that are conditional controls
system.cpu.num_fp_alu_accesses              184508630                       # Number of float alu accesses
system.cpu.num_fp_insts                     184508630                       # number of float instructions
system.cpu.num_fp_register_reads            225216959                       # number of times the floating registers were read
system.cpu.num_fp_register_writes           180499649                       # number of times the floating registers were written
system.cpu.num_func_calls                       81592                       # number of times a function call or return occured
system.cpu.num_idle_cycles                   0.001000                       # Number of idle cycles
system.cpu.num_int_alu_accesses             435906617                       # Number of integer alu accesses
system.cpu.num_int_insts                    435906617                       # number of integer instructions
system.cpu.num_int_register_reads           778692989                       # number of times the integer registers were read
system.cpu.num_int_register_writes          309382680                       # number of times the integer registers were written
system.cpu.num_load_insts                   111390468                       # Number of load instructions
system.cpu.num_mem_refs                     116747133                       # number of memory refs
system.cpu.num_store_insts                    5356665                       # Number of store instructions
system.cpu.num_vec_alu_accesses                     0                       # Number of vector alu accesses
system.cpu.num_vec_insts                            0                       # number of vector instructions
system.cpu.num_vec_register_reads                   0                       # number of times the vector registers were read
system.cpu.num_vec_register_writes                  0                       # number of times the vector registers were written
system.cpu.op_class::No_OpClass                710625      0.13%      0.13% # Class of executed instruction
system.cpu.op_class::IntAlu                 322694263     59.17%     59.30% # Class of executed instruction
system.cpu.op_class::IntMult                    30102      0.01%     59.31% # Class of executed instruction
system.cpu.op_class::IntDiv                       623      0.00%     59.31% # Class of executed instruction
system.cpu.op_class::FloatAdd                33737834      6.19%     65.49% # Class of executed instruction
system.cpu.op_class::FloatCmp                       0      0.00%     65.49% # Class of executed instruction
system.cpu.op_class::FloatCvt                       0      0.00%     65.49% # Class of executed instruction
system.cpu.op_class::FloatMult                      0      0.00%     65.49% # Class of executed instruction
system.cpu.op_class::FloatMultAcc                   0      0.00%     65.49% # Class of executed instruction
system.cpu.op_class::FloatDiv                       0      0.00%     65.49% # Class of executed instruction
system.cpu.op_class::FloatMisc                      0      0.00%     65.49% # Class of executed instruction
system.cpu.op_class::FloatSqrt                      0      0.00%     65.49% # Class of executed instruction
system.cpu.op_class::SimdAdd                    76762      0.01%     65.51% # Class of executed instruction
system.cpu.op_class::SimdAddAcc                     0      0.00%     65.51% # Class of executed instruction
system.cpu.op_class::SimdAlu                    60252      0.01%     65.52% # Class of executed instruction
system.cpu.op_class::SimdCmp                       24      0.00%     65.52% # Class of executed instruction
system.cpu.op_class::SimdCvt                     1170      0.00%     65.52% # Class of executed instruction
system.cpu.op_class::SimdMisc                  125019      0.02%     65.54% # Class of executed instruction
system.cpu.op_class::SimdMult                       0      0.00%     65.54% # Class of executed instruction
system.cpu.op_class::SimdMultAcc                    0      0.00%     65.54% # Class of executed instruction
system.cpu.op_class::SimdShift                      0      0.00%     65.54% # Class of executed instruction
system.cpu.op_class::SimdShiftAcc                   0      0.00%     65.54% # Class of executed instruction
system.cpu.op_class::SimdDiv                        0      0.00%     65.54% # Class of executed instruction
system.cpu.op_class::SimdSqrt                       0      0.00%     65.54% # Class of executed instruction
system.cpu.op_class::SimdFloatAdd            35512541      6.51%     72.05% # Class of executed instruction
system.cpu.op_class::SimdFloatAlu                   0      0.00%     72.05% # Class of executed instruction
system.cpu.op_class::SimdFloatCmp                   0      0.00%     72.05% # Class of executed instruction
system.cpu.op_class::SimdFloatCvt              101637      0.02%     72.07% # Class of executed instruction
system.cpu.op_class::SimdFloatDiv                 835      0.00%     72.07% # Class of executed instruction
system.cpu.op_class::SimdFloatMisc                  0      0.00%     72.07% # Class of executed instruction
system.cpu.op_class::SimdFloatMult           35565797      6.52%     78.59% # Class of executed instruction
system.cpu.op_class::SimdFloatMultAcc               0      0.00%     78.59% # Class of executed instruction
system.cpu.op_class::SimdFloatSqrt                 32      0.00%     78.59% # Class of executed instruction
system.cpu.op_class::SimdReduceAdd                  0      0.00%     78.59% # Class of executed instruction
system.cpu.op_class::SimdReduceAlu                  0      0.00%     78.59% # Class of executed instruction
system.cpu.op_class::SimdReduceCmp                  0      0.00%     78.59% # Class of executed instruction
system.cpu.op_class::SimdFloatReduceAdd             0      0.00%     78.59% # Class of executed instruction
system.cpu.op_class::SimdFloatReduceCmp             0      0.00%     78.59% # Class of executed instruction
system.cpu.op_class::SimdAes                        0      0.00%     78.59% # Class of executed instruction
system.cpu.op_class::SimdAesMix                     0      0.00%     78.59% # Class of executed instruction
system.cpu.op_class::SimdSha1Hash                   0      0.00%     78.59% # Class of executed instruction
system.cpu.op_class::SimdSha1Hash2                  0      0.00%     78.59% # Class of executed instruction
system.cpu.op_class::SimdSha256Hash                 0      0.00%     78.59% # Class of executed instruction
system.cpu.op_class::SimdSha256Hash2                0      0.00%     78.59% # Class of executed instruction
system.cpu.op_class::SimdShaSigma2                  0      0.00%     78.59% # Class of executed instruction
system.cpu.op_class::SimdShaSigma3                  0      0.00%     78.59% # Class of executed instruction
system.cpu.op_class::SimdPredAlu                    0      0.00%     78.59% # Class of executed instruction
system.cpu.op_class::MemRead                 39670285      7.27%     85.87% # Class of executed instruction
system.cpu.op_class::MemWrite                 1421534      0.26%     86.13% # Class of executed instruction
system.cpu.op_class::FloatMemRead            71720183     13.15%     99.28% # Class of executed instruction
system.cpu.op_class::FloatMemWrite            3935131      0.72%    100.00% # Class of executed instruction
system.cpu.op_class::IprAccess                      0      0.00%    100.00% # Class of executed instruction
system.cpu.op_class::InstPrefetch                   0      0.00%    100.00% # Class of executed instruction
system.cpu.op_class::total                  545364649                       # Class of executed instruction
system.cpu.workload.numSyscalls                    87                       # Number of system calls
system.l2bus.snoop_filter.hit_multi_requests            0                       # Number of requests hitting in the snoop filter with multiple (>1) holders of the requested data.
system.l2bus.snoop_filter.hit_multi_snoops            0                       # Number of snoops hitting in the snoop filter with multiple (>1) holders of the requested data.
system.l2bus.snoop_filter.hit_single_requests      6626203                       # Number of requests hitting in the snoop filter with a single holder of the requested data.
system.l2bus.snoop_filter.hit_single_snoops        87950                       # Number of snoops hitting in the snoop filter with a single holder of the requested data.
system.l2bus.snoop_filter.tot_requests       13253686                       # Total number of requests made to the snoop filter.
system.l2bus.snoop_filter.tot_snoops            87950                       # Total number of snoops made to the snoop filter.
system.membus.snoop_filter.hit_multi_requests            0                       # Number of requests hitting in the snoop filter with multiple (>1) holders of the requested data.
system.membus.snoop_filter.hit_multi_snoops            0                       # Number of snoops hitting in the snoop filter with multiple (>1) holders of the requested data.
system.membus.snoop_filter.hit_single_requests      6518843                       # Number of requests hitting in the snoop filter with a single holder of the requested data.
system.membus.snoop_filter.hit_single_snoops            0                       # Number of snoops hitting in the snoop filter with a single holder of the requested data.
system.membus.snoop_filter.tot_requests      13041876                       # Total number of requests made to the snoop filter.
system.membus.snoop_filter.tot_snoops               0                       # Total number of snoops made to the snoop filter.
system.clk_domain.clock                          1000                       # Clock period in ticks
system.clk_domain.voltage_domain.voltage            1                       # Voltage in Volts
system.cpu.dcache.demand_hits::.cpu.data    110150244                       # number of demand (read+write) hits
system.cpu.dcache.demand_hits::total        110150244                       # number of demand (read+write) hits
system.cpu.dcache.overall_hits::.cpu.data    110150244                       # number of overall hits
system.cpu.dcache.overall_hits::total       110150244                       # number of overall hits
system.cpu.dcache.demand_misses::.cpu.data      6608747                       # number of demand (read+write) misses
system.cpu.dcache.demand_misses::total        6608747                       # number of demand (read+write) misses
system.cpu.dcache.overall_misses::.cpu.data      6608747                       # number of overall misses
system.cpu.dcache.overall_misses::total       6608747                       # number of overall misses
system.cpu.dcache.demand_miss_latency::.cpu.data 661566469000                       # number of demand (read+write) miss cycles
system.cpu.dcache.demand_miss_latency::total 661566469000                       # number of demand (read+write) miss cycles
system.cpu.dcache.overall_miss_latency::.cpu.data 661566469000                       # number of overall miss cycles
system.cpu.dcache.overall_miss_latency::total 661566469000                       # number of overall miss cycles
system.cpu.dcache.demand_accesses::.cpu.data    116758991                       # number of demand (read+write) accesses
system.cpu.dcache.demand_accesses::total    116758991                       # number of demand (read+write) accesses
system.cpu.dcache.overall_accesses::.cpu.data    116758991                       # number of overall (read+write) accesses
system.cpu.dcache.overall_accesses::total    116758991                       # number of overall (read+write) accesses
system.cpu.dcache.demand_miss_rate::.cpu.data     0.056602                       # miss rate for demand accesses
system.cpu.dcache.demand_miss_rate::total     0.056602                       # miss rate for demand accesses
system.cpu.dcache.overall_miss_rate::.cpu.data     0.056602                       # miss rate for overall accesses
system.cpu.dcache.overall_miss_rate::total     0.056602                       # miss rate for overall accesses
system.cpu.dcache.demand_avg_miss_latency::.cpu.data 100104.674759                       # average overall miss latency
system.cpu.dcache.demand_avg_miss_latency::total 100104.674759                       # average overall miss latency
system.cpu.dcache.overall_avg_miss_latency::.cpu.data 100104.674759                       # average overall miss latency
system.cpu.dcache.overall_avg_miss_latency::total 100104.674759                       # average overall miss latency
system.cpu.dcache.blocked_cycles::no_mshrs            0                       # number of cycles access was blocked
system.cpu.dcache.blocked_cycles::no_targets            0                       # number of cycles access was blocked
system.cpu.dcache.blocked::no_mshrs                 0                       # number of cycles access was blocked
system.cpu.dcache.blocked::no_targets               0                       # number of cycles access was blocked
system.cpu.dcache.avg_blocked_cycles::no_mshrs          nan                       # average number of cycles each access was blocked
system.cpu.dcache.avg_blocked_cycles::no_targets          nan                       # average number of cycles each access was blocked
system.cpu.dcache.writebacks::.writebacks       384299                       # number of writebacks
system.cpu.dcache.writebacks::total            384299                       # number of writebacks
system.cpu.dcache.demand_mshr_misses::.cpu.data      6608747                       # number of demand (read+write) MSHR misses
system.cpu.dcache.demand_mshr_misses::total      6608747                       # number of demand (read+write) MSHR misses
system.cpu.dcache.overall_mshr_misses::.cpu.data      6608747                       # number of overall MSHR misses
system.cpu.dcache.overall_mshr_misses::total      6608747                       # number of overall MSHR misses
system.cpu.dcache.demand_mshr_miss_latency::.cpu.data 648348975000                       # number of demand (read+write) MSHR miss cycles
system.cpu.dcache.demand_mshr_miss_latency::total 648348975000                       # number of demand (read+write) MSHR miss cycles
system.cpu.dcache.overall_mshr_miss_latency::.cpu.data 648348975000                       # number of overall MSHR miss cycles
system.cpu.dcache.overall_mshr_miss_latency::total 648348975000                       # number of overall MSHR miss cycles
system.cpu.dcache.demand_mshr_miss_rate::.cpu.data     0.056602                       # mshr miss rate for demand accesses
system.cpu.dcache.demand_mshr_miss_rate::total     0.056602                       # mshr miss rate for demand accesses
system.cpu.dcache.overall_mshr_miss_rate::.cpu.data     0.056602                       # mshr miss rate for overall accesses
system.cpu.dcache.overall_mshr_miss_rate::total     0.056602                       # mshr miss rate for overall accesses
system.cpu.dcache.demand_avg_mshr_miss_latency::.cpu.data 98104.674759                       # average overall mshr miss latency
system.cpu.dcache.demand_avg_mshr_miss_latency::total 98104.674759                       # average overall mshr miss latency
system.cpu.dcache.overall_avg_mshr_miss_latency::.cpu.data 98104.674759                       # average overall mshr miss latency
system.cpu.dcache.overall_avg_mshr_miss_latency::total 98104.674759                       # average overall mshr miss latency
system.cpu.dcache.replacements                6607723                       # number of replacements
system.cpu.dcache.ReadReq_hits::.cpu.data    104904675                       # number of ReadReq hits
system.cpu.dcache.ReadReq_hits::total       104904675                       # number of ReadReq hits
system.cpu.dcache.ReadReq_misses::.cpu.data      6490776                       # number of ReadReq misses
system.cpu.dcache.ReadReq_misses::total       6490776                       # number of ReadReq misses
system.cpu.dcache.ReadReq_miss_latency::.cpu.data 650650211000                       # number of ReadReq miss cycles
system.cpu.dcache.ReadReq_miss_latency::total 650650211000                       # number of ReadReq miss cycles
system.cpu.dcache.ReadReq_accesses::.cpu.data    111395451                       # number of ReadReq accesses(hits+misses)
system.cpu.dcache.ReadReq_accesses::total    111395451                       # number of ReadReq accesses(hits+misses)
system.cpu.dcache.ReadReq_miss_rate::.cpu.data     0.058268                       # miss rate for ReadReq accesses
system.cpu.dcache.ReadReq_miss_rate::total     0.058268                       # miss rate for ReadReq accesses
system.cpu.dcache.ReadReq_avg_miss_latency::.cpu.data 100242.283973                       # average ReadReq miss latency
system.cpu.dcache.ReadReq_avg_miss_latency::total 100242.283973                       # average ReadReq miss latency
system.cpu.dcache.ReadReq_mshr_misses::.cpu.data      6490776                       # number of ReadReq MSHR misses
system.cpu.dcache.ReadReq_mshr_misses::total      6490776                       # number of ReadReq MSHR misses
system.cpu.dcache.ReadReq_mshr_miss_latency::.cpu.data 637668659000                       # number of ReadReq MSHR miss cycles
system.cpu.dcache.ReadReq_mshr_miss_latency::total 637668659000                       # number of ReadReq MSHR miss cycles
system.cpu.dcache.ReadReq_mshr_miss_rate::.cpu.data     0.058268                       # mshr miss rate for ReadReq accesses
system.cpu.dcache.ReadReq_mshr_miss_rate::total     0.058268                       # mshr miss rate for ReadReq accesses
system.cpu.dcache.ReadReq_avg_mshr_miss_latency::.cpu.data 98242.283973                       # average ReadReq mshr miss latency
system.cpu.dcache.ReadReq_avg_mshr_miss_latency::total 98242.283973                       # average ReadReq mshr miss latency
system.cpu.dcache.WriteReq_hits::.cpu.data      5245569                       # number of WriteReq hits
system.cpu.dcache.WriteReq_hits::total        5245569                       # number of WriteReq hits
system.cpu.dcache.WriteReq_misses::.cpu.data       117971                       # number of WriteReq misses
system.cpu.dcache.WriteReq_misses::total       117971                       # number of WriteReq misses
system.cpu.dcache.WriteReq_miss_latency::.cpu.data  10916258000                       # number of WriteReq miss cycles
system.cpu.dcache.WriteReq_miss_latency::total  10916258000                       # number of WriteReq miss cycles
system.cpu.dcache.WriteReq_accesses::.cpu.data      5363540                       # number of WriteReq accesses(hits+misses)
system.cpu.dcache.WriteReq_accesses::total      5363540                       # number of WriteReq accesses(hits+misses)
system.cpu.dcache.WriteReq_miss_rate::.cpu.data     0.021995                       # miss rate for WriteReq accesses
system.cpu.dcache.WriteReq_miss_rate::total     0.021995                       # miss rate for WriteReq accesses
system.cpu.dcache.WriteReq_avg_miss_latency::.cpu.data 92533.402277                       # average WriteReq miss latency
system.cpu.dcache.WriteReq_avg_miss_latency::total 92533.402277                       # average WriteReq miss latency
system.cpu.dcache.WriteReq_mshr_misses::.cpu.data       117971                       # number of WriteReq MSHR misses
system.cpu.dcache.WriteReq_mshr_misses::total       117971                       # number of WriteReq MSHR misses
system.cpu.dcache.WriteReq_mshr_miss_latency::.cpu.data  10680316000                       # number of WriteReq MSHR miss cycles
system.cpu.dcache.WriteReq_mshr_miss_latency::total  10680316000                       # number of WriteReq MSHR miss cycles
system.cpu.dcache.WriteReq_mshr_miss_rate::.cpu.data     0.021995                       # mshr miss rate for WriteReq accesses
system.cpu.dcache.WriteReq_mshr_miss_rate::total     0.021995                       # mshr miss rate for WriteReq accesses
system.cpu.dcache.WriteReq_avg_mshr_miss_latency::.cpu.data 90533.402277                       # average WriteReq mshr miss latency
system.cpu.dcache.WriteReq_avg_mshr_miss_latency::total 90533.402277                       # average WriteReq mshr miss latency
system.cpu.dcache.power_state.pwrStateResidencyTicks::UNDEFINED 1709551717000                       # Cumulative time (in ticks) in various power states
system.cpu.dcache.tags.tagsinuse          1023.810022                       # Cycle average of tags in use
system.cpu.dcache.tags.total_refs           116758991                       # Total number of references to valid blocks.
system.cpu.dcache.tags.sampled_refs           6608747                       # Sample count of references to valid blocks.
system.cpu.dcache.tags.avg_refs             17.667342                       # Average number of references to valid blocks.
system.cpu.dcache.tags.warmup_cycle            224000                       # Cycle when the warmup percentage was hit.
system.cpu.dcache.tags.occ_blocks::.cpu.data  1023.810022                       # Average occupied blocks per requestor
system.cpu.dcache.tags.occ_percent::.cpu.data     0.999814                       # Average percentage of cache occupancy
system.cpu.dcache.tags.occ_percent::total     0.999814                       # Average percentage of cache occupancy
system.cpu.dcache.tags.occ_task_id_blocks::1024         1024                       # Occupied blocks per task id
system.cpu.dcache.tags.age_task_id_blocks_1024::0           27                       # Occupied blocks per task id
system.cpu.dcache.tags.age_task_id_blocks_1024::1          110                       # Occupied blocks per task id
system.cpu.dcache.tags.age_task_id_blocks_1024::2          807                       # Occupied blocks per task id
system.cpu.dcache.tags.age_task_id_blocks_1024::3           80                       # Occupied blocks per task id
system.cpu.dcache.tags.occ_task_id_percent::1024            1                       # Percentage of cache occupancy per task id
system.cpu.dcache.tags.tag_accesses         240126729                       # Number of tag accesses
system.cpu.dcache.tags.data_accesses        240126729                       # Number of data accesses
system.cpu.dcache.tags.power_state.pwrStateResidencyTicks::UNDEFINED 1709551717000                       # Cumulative time (in ticks) in various power states
system.cpu.dtb.rdAccesses                   111395452                       # TLB accesses on read requests
system.cpu.dtb.wrAccesses                     5363563                       # TLB accesses on write requests
system.cpu.dtb.rdMisses                        115974                       # TLB misses on read requests
system.cpu.dtb.wrMisses                          1462                       # TLB misses on write requests
system.cpu.dtb.walker.power_state.pwrStateResidencyTicks::UNDEFINED 1709551717000                       # Cumulative time (in ticks) in various power states
system.cpu.icache.demand_hits::.cpu.inst    413236063                       # number of demand (read+write) hits
system.cpu.icache.demand_hits::total        413236063                       # number of demand (read+write) hits
system.cpu.icache.overall_hits::.cpu.inst    413236063                       # number of overall hits
system.cpu.icache.overall_hits::total       413236063                       # number of overall hits
system.cpu.icache.demand_misses::.cpu.inst        18736                       # number of demand (read+write) misses
system.cpu.icache.demand_misses::total          18736                       # number of demand (read+write) misses
system.cpu.icache.overall_misses::.cpu.inst        18736                       # number of overall misses
system.cpu.icache.overall_misses::total         18736                       # number of overall misses
system.cpu.icache.demand_miss_latency::.cpu.inst   1242169000                       # number of demand (read+write) miss cycles
system.cpu.icache.demand_miss_latency::total   1242169000                       # number of demand (read+write) miss cycles
system.cpu.icache.overall_miss_latency::.cpu.inst   1242169000                       # number of overall miss cycles
system.cpu.icache.overall_miss_latency::total   1242169000                       # number of overall miss cycles
system.cpu.icache.demand_accesses::.cpu.inst    413254799                       # number of demand (read+write) accesses
system.cpu.icache.demand_accesses::total    413254799                       # number of demand (read+write) accesses
system.cpu.icache.overall_accesses::.cpu.inst    413254799                       # number of overall (read+write) accesses
system.cpu.icache.overall_accesses::total    413254799                       # number of overall (read+write) accesses
system.cpu.icache.demand_miss_rate::.cpu.inst     0.000045                       # miss rate for demand accesses
system.cpu.icache.demand_miss_rate::total     0.000045                       # miss rate for demand accesses
system.cpu.icache.overall_miss_rate::.cpu.inst     0.000045                       # miss rate for overall accesses
system.cpu.icache.overall_miss_rate::total     0.000045                       # miss rate for overall accesses
system.cpu.icache.demand_avg_miss_latency::.cpu.inst 66298.516225                       # average overall miss latency
system.cpu.icache.demand_avg_miss_latency::total 66298.516225                       # average overall miss latency
system.cpu.icache.overall_avg_miss_latency::.cpu.inst 66298.516225                       # average overall miss latency
system.cpu.icache.overall_avg_miss_latency::total 66298.516225                       # average overall miss latency
system.cpu.icache.blocked_cycles::no_mshrs            0                       # number of cycles access was blocked
system.cpu.icache.blocked_cycles::no_targets            0                       # number of cycles access was blocked
system.cpu.icache.blocked::no_mshrs                 0                       # number of cycles access was blocked
system.cpu.icache.blocked::no_targets               0                       # number of cycles access was blocked
system.cpu.icache.avg_blocked_cycles::no_mshrs          nan                       # average number of cycles each access was blocked
system.cpu.icache.avg_blocked_cycles::no_targets          nan                       # average number of cycles each access was blocked
system.cpu.icache.demand_mshr_misses::.cpu.inst        18736                       # number of demand (read+write) MSHR misses
system.cpu.icache.demand_mshr_misses::total        18736                       # number of demand (read+write) MSHR misses
system.cpu.icache.overall_mshr_misses::.cpu.inst        18736                       # number of overall MSHR misses
system.cpu.icache.overall_mshr_misses::total        18736                       # number of overall MSHR misses
system.cpu.icache.demand_mshr_miss_latency::.cpu.inst   1204697000                       # number of demand (read+write) MSHR miss cycles
system.cpu.icache.demand_mshr_miss_latency::total   1204697000                       # number of demand (read+write) MSHR miss cycles
system.cpu.icache.overall_mshr_miss_latency::.cpu.inst   1204697000                       # number of overall MSHR miss cycles
system.cpu.icache.overall_mshr_miss_latency::total   1204697000                       # number of overall MSHR miss cycles
system.cpu.icache.demand_mshr_miss_rate::.cpu.inst     0.000045                       # mshr miss rate for demand accesses
system.cpu.icache.demand_mshr_miss_rate::total     0.000045                       # mshr miss rate for demand accesses
system.cpu.icache.overall_mshr_miss_rate::.cpu.inst     0.000045                       # mshr miss rate for overall accesses
system.cpu.icache.overall_mshr_miss_rate::total     0.000045                       # mshr miss rate for overall accesses
system.cpu.icache.demand_avg_mshr_miss_latency::.cpu.inst 64298.516225                       # average overall mshr miss latency
system.cpu.icache.demand_avg_mshr_miss_latency::total 64298.516225                       # average overall mshr miss latency
system.cpu.icache.overall_avg_mshr_miss_latency::.cpu.inst 64298.516225                       # average overall mshr miss latency
system.cpu.icache.overall_avg_mshr_miss_latency::total 64298.516225                       # average overall mshr miss latency
system.cpu.icache.replacements                  18480                       # number of replacements
system.cpu.icache.ReadReq_hits::.cpu.inst    413236063                       # number of ReadReq hits
system.cpu.icache.ReadReq_hits::total       413236063                       # number of ReadReq hits
system.cpu.icache.ReadReq_misses::.cpu.inst        18736                       # number of ReadReq misses
system.cpu.icache.ReadReq_misses::total         18736                       # number of ReadReq misses
system.cpu.icache.ReadReq_miss_latency::.cpu.inst   1242169000                       # number of ReadReq miss cycles
system.cpu.icache.ReadReq_miss_latency::total   1242169000                       # number of ReadReq miss cycles
system.cpu.icache.ReadReq_accesses::.cpu.inst    413254799                       # number of ReadReq accesses(hits+misses)
system.cpu.icache.ReadReq_accesses::total    413254799                       # number of ReadReq accesses(hits+misses)
system.cpu.icache.ReadReq_miss_rate::.cpu.inst     0.000045                       # miss rate for ReadReq accesses
system.cpu.icache.ReadReq_miss_rate::total     0.000045                       # miss rate for ReadReq accesses
system.cpu.icache.ReadReq_avg_miss_latency::.cpu.inst 66298.516225                       # average ReadReq miss latency
system.cpu.icache.ReadReq_avg_miss_latency::total 66298.516225                       # average ReadReq miss latency
system.cpu.icache.ReadReq_mshr_misses::.cpu.inst        18736                       # number of ReadReq MSHR misses
system.cpu.icache.ReadReq_mshr_misses::total        18736                       # number of ReadReq MSHR misses
system.cpu.icache.ReadReq_mshr_miss_latency::.cpu.inst   1204697000                       # number of ReadReq MSHR miss cycles
system.cpu.icache.ReadReq_mshr_miss_latency::total   1204697000                       # number of ReadReq MSHR miss cycles
system.cpu.icache.ReadReq_mshr_miss_rate::.cpu.inst     0.000045                       # mshr miss rate for ReadReq accesses
system.cpu.icache.ReadReq_mshr_miss_rate::total     0.000045                       # mshr miss rate for ReadReq accesses
system.cpu.icache.ReadReq_avg_mshr_miss_latency::.cpu.inst 64298.516225                       # average ReadReq mshr miss latency
system.cpu.icache.ReadReq_avg_mshr_miss_latency::total 64298.516225                       # average ReadReq mshr miss latency
system.cpu.icache.power_state.pwrStateResidencyTicks::UNDEFINED 1709551717000                       # Cumulative time (in ticks) in various power states
system.cpu.icache.tags.tagsinuse           255.992325                       # Cycle average of tags in use
system.cpu.icache.tags.total_refs           413254799                       # Total number of references to valid blocks.
system.cpu.icache.tags.sampled_refs             18736                       # Sample count of references to valid blocks.
system.cpu.icache.tags.avg_refs          22056.724968                       # Average number of references to valid blocks.
system.cpu.icache.tags.warmup_cycle            107000                       # Cycle when the warmup percentage was hit.
system.cpu.icache.tags.occ_blocks::.cpu.inst   255.992325                       # Average occupied blocks per requestor
system.cpu.icache.tags.occ_percent::.cpu.inst     0.999970                       # Average percentage of cache occupancy
system.cpu.icache.tags.occ_percent::total     0.999970                       # Average percentage of cache occupancy
system.cpu.icache.tags.occ_task_id_blocks::1024          256                       # Occupied blocks per task id
system.cpu.icache.tags.age_task_id_blocks_1024::0           35                       # Occupied blocks per task id
system.cpu.icache.tags.age_task_id_blocks_1024::1          116                       # Occupied blocks per task id
system.cpu.icache.tags.age_task_id_blocks_1024::2           98                       # Occupied blocks per task id
system.cpu.icache.tags.age_task_id_blocks_1024::4            7                       # Occupied blocks per task id
system.cpu.icache.tags.occ_task_id_percent::1024            1                       # Percentage of cache occupancy per task id
system.cpu.icache.tags.tag_accesses         826528334                       # Number of tag accesses
system.cpu.icache.tags.data_accesses        826528334                       # Number of data accesses
system.cpu.icache.tags.power_state.pwrStateResidencyTicks::UNDEFINED 1709551717000                       # Cumulative time (in ticks) in various power states
system.cpu.interrupts.clk_domain.clock          16000                       # Clock period in ticks
system.cpu.itb.rdAccesses                           0                       # TLB accesses on read requests
system.cpu.itb.wrAccesses                   413254799                       # TLB accesses on write requests
system.cpu.itb.rdMisses                             0                       # TLB misses on read requests
system.cpu.itb.wrMisses                           110                       # TLB misses on write requests
system.cpu.itb.walker.power_state.pwrStateResidencyTicks::UNDEFINED 1709551717000                       # Cumulative time (in ticks) in various power states
system.cpu.power_state.pwrStateResidencyTicks::ON 1709551717000                       # Cumulative time (in ticks) in various power states
system.cpu.thread_0.numInsts                        0                       # Number of Instructions committed
system.cpu.thread_0.numOps                          0                       # Number of Ops committed
system.cpu.thread_0.numMemRefs                      0                       # Number of Memory References
system.l2bus.trans_dist::ReadResp             6509512                       # Transaction distribution
system.l2bus.trans_dist::WritebackDirty        711242                       # Transaction distribution
system.l2bus.trans_dist::CleanEvict          12456255                       # Transaction distribution
system.l2bus.trans_dist::ReadExReq             117971                       # Transaction distribution
system.l2bus.trans_dist::ReadExResp            117971                       # Transaction distribution
system.l2bus.trans_dist::ReadSharedReq        6509512                       # Transaction distribution
system.l2bus.pkt_count_system.cpu.icache.mem_side_port::system.l2cache.cpu_side_port        55952                       # Packet count per connected requestor and responder (bytes)
system.l2bus.pkt_count_system.cpu.dcache.mem_side_port::system.l2cache.cpu_side_port     19825217                       # Packet count per connected requestor and responder (bytes)
system.l2bus.pkt_count::total                19881169                       # Packet count per connected requestor and responder (bytes)
system.l2bus.pkt_size_system.cpu.icache.mem_side_port::system.l2cache.cpu_side_port      1199104                       # Cumulative packet size per connected requestor and responder (bytes)
system.l2bus.pkt_size_system.cpu.dcache.mem_side_port::system.l2cache.cpu_side_port    447554944                       # Cumulative packet size per connected requestor and responder (bytes)
system.l2bus.pkt_size::total                448754048                       # Cumulative packet size per connected requestor and responder (bytes)
system.l2bus.snoops                           6541294                       # Total snoops (count)
system.l2bus.snoopTraffic                    20924352                       # Total snoop traffic (bytes)
system.l2bus.snoop_fanout::samples           13168777                       # Request fanout histogram
system.l2bus.snoop_fanout::mean              0.006679                       # Request fanout histogram
system.l2bus.snoop_fanout::stdev             0.081450                       # Request fanout histogram
system.l2bus.snoop_fanout::underflows               0      0.00%      0.00% # Request fanout histogram
system.l2bus.snoop_fanout::0                 13080827     99.33%     99.33% # Request fanout histogram
system.l2bus.snoop_fanout::1                    87950      0.67%    100.00% # Request fanout histogram
system.l2bus.snoop_fanout::2                        0      0.00%    100.00% # Request fanout histogram
system.l2bus.snoop_fanout::overflows                0      0.00%    100.00% # Request fanout histogram
system.l2bus.snoop_fanout::min_value                0                       # Request fanout histogram
system.l2bus.snoop_fanout::max_value                1                       # Request fanout histogram
system.l2bus.snoop_fanout::total             13168777                       # Request fanout histogram
system.l2bus.power_state.pwrStateResidencyTicks::UNDEFINED 1709551717000                       # Cumulative time (in ticks) in various power states
system.l2bus.reqLayer0.occupancy          14022284000                       # Layer occupancy (ticks)
system.l2bus.reqLayer0.utilization                0.8                       # Layer utilization (%)
system.l2bus.respLayer0.occupancy            56208000                       # Layer occupancy (ticks)
system.l2bus.respLayer0.utilization               0.0                       # Layer utilization (%)
system.l2bus.respLayer1.occupancy         19826241000                       # Layer occupancy (ticks)
system.l2bus.respLayer1.utilization               1.2                       # Layer utilization (%)
system.l2cache.demand_hits::.cpu.inst            8969                       # number of demand (read+write) hits
system.l2cache.demand_hits::.cpu.data           95481                       # number of demand (read+write) hits
system.l2cache.demand_hits::total              104450                       # number of demand (read+write) hits
system.l2cache.overall_hits::.cpu.inst           8969                       # number of overall hits
system.l2cache.overall_hits::.cpu.data          95481                       # number of overall hits
system.l2cache.overall_hits::total             104450                       # number of overall hits
system.l2cache.demand_misses::.cpu.inst          9767                       # number of demand (read+write) misses
system.l2cache.demand_misses::.cpu.data       6513266                       # number of demand (read+write) misses
system.l2cache.demand_misses::total           6523033                       # number of demand (read+write) misses
system.l2cache.overall_misses::.cpu.inst         9767                       # number of overall misses
system.l2cache.overall_misses::.cpu.data      6513266                       # number of overall misses
system.l2cache.overall_misses::total          6523033                       # number of overall misses
system.l2cache.demand_miss_latency::.cpu.inst    960113000                       # number of demand (read+write) miss cycles
system.l2cache.demand_miss_latency::.cpu.data 626517123000                       # number of demand (read+write) miss cycles
system.l2cache.demand_miss_latency::total 627477236000                       # number of demand (read+write) miss cycles
system.l2cache.overall_miss_latency::.cpu.inst    960113000                       # number of overall miss cycles
system.l2cache.overall_miss_latency::.cpu.data 626517123000                       # number of overall miss cycles
system.l2cache.overall_miss_latency::total 627477236000                       # number of overall miss cycles
system.l2cache.demand_accesses::.cpu.inst        18736                       # number of demand (read+write) accesses
system.l2cache.demand_accesses::.cpu.data      6608747                       # number of demand (read+write) accesses
system.l2cache.demand_accesses::total         6627483                       # number of demand (read+write) accesses
system.l2cache.overall_accesses::.cpu.inst        18736                       # number of overall (read+write) accesses
system.l2cache.overall_accesses::.cpu.data      6608747                       # number of overall (read+write) accesses
system.l2cache.overall_accesses::total        6627483                       # number of overall (read+write) accesses
system.l2cache.demand_miss_rate::.cpu.inst     0.521296                       # miss rate for demand accesses
system.l2cache.demand_miss_rate::.cpu.data     0.985552                       # miss rate for demand accesses
system.l2cache.demand_miss_rate::total       0.984240                       # miss rate for demand accesses
system.l2cache.overall_miss_rate::.cpu.inst     0.521296                       # miss rate for overall accesses
system.l2cache.overall_miss_rate::.cpu.data     0.985552                       # miss rate for overall accesses
system.l2cache.overall_miss_rate::total      0.984240                       # miss rate for overall accesses
system.l2cache.demand_avg_miss_latency::.cpu.inst 98301.730316                       # average overall miss latency
system.l2cache.demand_avg_miss_latency::.cpu.data 96190.931401                       # average overall miss latency
system.l2cache.demand_avg_miss_latency::total 96194.091920                       # average overall miss latency
system.l2cache.overall_avg_miss_latency::.cpu.inst 98301.730316                       # average overall miss latency
system.l2cache.overall_avg_miss_latency::.cpu.data 96190.931401                       # average overall miss latency
system.l2cache.overall_avg_miss_latency::total 96194.091920                       # average overall miss latency
system.l2cache.blocked_cycles::no_mshrs             0                       # number of cycles access was blocked
system.l2cache.blocked_cycles::no_targets            0                       # number of cycles access was blocked
system.l2cache.blocked::no_mshrs                    0                       # number of cycles access was blocked
system.l2cache.blocked::no_targets                  0                       # number of cycles access was blocked
system.l2cache.avg_blocked_cycles::no_mshrs          nan                       # average number of cycles each access was blocked
system.l2cache.avg_blocked_cycles::no_targets          nan                       # average number of cycles each access was blocked
system.l2cache.writebacks::.writebacks         326943                       # number of writebacks
system.l2cache.writebacks::total               326943                       # number of writebacks
system.l2cache.demand_mshr_misses::.cpu.inst         9767                       # number of demand (read+write) MSHR misses
system.l2cache.demand_mshr_misses::.cpu.data      6513266                       # number of demand (read+write) MSHR misses
system.l2cache.demand_mshr_misses::total      6523033                       # number of demand (read+write) MSHR misses
system.l2cache.overall_mshr_misses::.cpu.inst         9767                       # number of overall MSHR misses
system.l2cache.overall_mshr_misses::.cpu.data      6513266                       # number of overall MSHR misses
system.l2cache.overall_mshr_misses::total      6523033                       # number of overall MSHR misses
system.l2cache.demand_mshr_miss_latency::.cpu.inst    764773000                       # number of demand (read+write) MSHR miss cycles
system.l2cache.demand_mshr_miss_latency::.cpu.data 496251803000                       # number of demand (read+write) MSHR miss cycles
system.l2cache.demand_mshr_miss_latency::total 497016576000                       # number of demand (read+write) MSHR miss cycles
system.l2cache.overall_mshr_miss_latency::.cpu.inst    764773000                       # number of overall MSHR miss cycles
system.l2cache.overall_mshr_miss_latency::.cpu.data 496251803000                       # number of overall MSHR miss cycles
system.l2cache.overall_mshr_miss_latency::total 497016576000                       # number of overall MSHR miss cycles
system.l2cache.demand_mshr_miss_rate::.cpu.inst     0.521296                       # mshr miss rate for demand accesses
system.l2cache.demand_mshr_miss_rate::.cpu.data     0.985552                       # mshr miss rate for demand accesses
system.l2cache.demand_mshr_miss_rate::total     0.984240                       # mshr miss rate for demand accesses
system.l2cache.overall_mshr_miss_rate::.cpu.inst     0.521296                       # mshr miss rate for overall accesses
system.l2cache.overall_mshr_miss_rate::.cpu.data     0.985552                       # mshr miss rate for overall accesses
system.l2cache.overall_mshr_miss_rate::total     0.984240                       # mshr miss rate for overall accesses
system.l2cache.demand_avg_mshr_miss_latency::.cpu.inst 78301.730316                       # average overall mshr miss latency
system.l2cache.demand_avg_mshr_miss_latency::.cpu.data 76190.931401                       # average overall mshr miss latency
system.l2cache.demand_avg_mshr_miss_latency::total 76194.091920                       # average overall mshr miss latency
system.l2cache.overall_avg_mshr_miss_latency::.cpu.inst 78301.730316                       # average overall mshr miss latency
system.l2cache.overall_avg_mshr_miss_latency::.cpu.data 76190.931401                       # average overall mshr miss latency
system.l2cache.overall_avg_mshr_miss_latency::total 76194.091920                       # average overall mshr miss latency
system.l2cache.replacements                   6476715                       # number of replacements
system.l2cache.WritebackDirty_hits::.writebacks       384072                       # number of WritebackDirty hits
system.l2cache.WritebackDirty_hits::total       384072                       # number of WritebackDirty hits
system.l2cache.WritebackDirty_misses::.writebacks          227                       # number of WritebackDirty misses
system.l2cache.WritebackDirty_misses::total          227                       # number of WritebackDirty misses
system.l2cache.WritebackDirty_accesses::.writebacks       384299                       # number of WritebackDirty accesses(hits+misses)
system.l2cache.WritebackDirty_accesses::total       384299                       # number of WritebackDirty accesses(hits+misses)
system.l2cache.WritebackDirty_miss_rate::.writebacks     0.000591                       # miss rate for WritebackDirty accesses
system.l2cache.WritebackDirty_miss_rate::total     0.000591                       # miss rate for WritebackDirty accesses
system.l2cache.WritebackDirty_mshr_misses::.writebacks          227                       # number of WritebackDirty MSHR misses
system.l2cache.WritebackDirty_mshr_misses::total          227                       # number of WritebackDirty MSHR misses
system.l2cache.WritebackDirty_mshr_miss_rate::.writebacks     0.000591                       # mshr miss rate for WritebackDirty accesses
system.l2cache.WritebackDirty_mshr_miss_rate::total     0.000591                       # mshr miss rate for WritebackDirty accesses
system.l2cache.CleanEvict_mshr_misses::.writebacks        65272                       # number of CleanEvict MSHR misses
system.l2cache.CleanEvict_mshr_misses::total        65272                       # number of CleanEvict MSHR misses
system.l2cache.CleanEvict_mshr_miss_rate::.writebacks          inf                       # mshr miss rate for CleanEvict accesses
system.l2cache.CleanEvict_mshr_miss_rate::total          inf                       # mshr miss rate for CleanEvict accesses
system.l2cache.ReadExReq_hits::.cpu.data        26365                       # number of ReadExReq hits
system.l2cache.ReadExReq_hits::total            26365                       # number of ReadExReq hits
system.l2cache.ReadExReq_misses::.cpu.data        91606                       # number of ReadExReq misses
system.l2cache.ReadExReq_misses::total          91606                       # number of ReadExReq misses
system.l2cache.ReadExReq_miss_latency::.cpu.data   9772406000                       # number of ReadExReq miss cycles
system.l2cache.ReadExReq_miss_latency::total   9772406000                       # number of ReadExReq miss cycles
system.l2cache.ReadExReq_accesses::.cpu.data       117971                       # number of ReadExReq accesses(hits+misses)
system.l2cache.ReadExReq_accesses::total       117971                       # number of ReadExReq accesses(hits+misses)
system.l2cache.ReadExReq_miss_rate::.cpu.data     0.776513                       # miss rate for ReadExReq accesses
system.l2cache.ReadExReq_miss_rate::total     0.776513                       # miss rate for ReadExReq accesses
system.l2cache.ReadExReq_avg_miss_latency::.cpu.data 106678.667336                       # average ReadExReq miss latency
system.l2cache.ReadExReq_avg_miss_latency::total 106678.667336                       # average ReadExReq miss latency
system.l2cache.ReadExReq_mshr_misses::.cpu.data        91606                       # number of ReadExReq MSHR misses
system.l2cache.ReadExReq_mshr_misses::total        91606                       # number of ReadExReq MSHR misses
system.l2cache.ReadExReq_mshr_miss_latency::.cpu.data   7940286000                       # number of ReadExReq MSHR miss cycles
system.l2cache.ReadExReq_mshr_miss_latency::total   7940286000                       # number of ReadExReq MSHR miss cycles
system.l2cache.ReadExReq_mshr_miss_rate::.cpu.data     0.776513                       # mshr miss rate for ReadExReq accesses
system.l2cache.ReadExReq_mshr_miss_rate::total     0.776513                       # mshr miss rate for ReadExReq accesses
system.l2cache.ReadExReq_avg_mshr_miss_latency::.cpu.data 86678.667336                       # average ReadExReq mshr miss latency
system.l2cache.ReadExReq_avg_mshr_miss_latency::total 86678.667336                       # average ReadExReq mshr miss latency
system.l2cache.ReadSharedReq_hits::.cpu.inst         8969                       # number of ReadSharedReq hits
system.l2cache.ReadSharedReq_hits::.cpu.data        69116                       # number of ReadSharedReq hits
system.l2cache.ReadSharedReq_hits::total        78085                       # number of ReadSharedReq hits
system.l2cache.ReadSharedReq_misses::.cpu.inst         9767                       # number of ReadSharedReq misses
system.l2cache.ReadSharedReq_misses::.cpu.data      6421660                       # number of ReadSharedReq misses
system.l2cache.ReadSharedReq_misses::total      6431427                       # number of ReadSharedReq misses
system.l2cache.ReadSharedReq_miss_latency::.cpu.inst    960113000                       # number of ReadSharedReq miss cycles
system.l2cache.ReadSharedReq_miss_latency::.cpu.data 616744717000                       # number of ReadSharedReq miss cycles
system.l2cache.ReadSharedReq_miss_latency::total 617704830000                       # number of ReadSharedReq miss cycles
system.l2cache.ReadSharedReq_accesses::.cpu.inst        18736                       # number of ReadSharedReq accesses(hits+misses)
system.l2cache.ReadSharedReq_accesses::.cpu.data      6490776                       # number of ReadSharedReq accesses(hits+misses)
system.l2cache.ReadSharedReq_accesses::total      6509512                       # number of ReadSharedReq accesses(hits+misses)
system.l2cache.ReadSharedReq_miss_rate::.cpu.inst     0.521296                       # miss rate for ReadSharedReq accesses
system.l2cache.ReadSharedReq_miss_rate::.cpu.data     0.989352                       # miss rate for ReadSharedReq accesses
system.l2cache.ReadSharedReq_miss_rate::total     0.988004                       # miss rate for ReadSharedReq accesses
system.l2cache.ReadSharedReq_avg_miss_latency::.cpu.inst 98301.730316                       # average ReadSharedReq miss latency
system.l2cache.ReadSharedReq_avg_miss_latency::.cpu.data 96041.322181                       # average ReadSharedReq miss latency
system.l2cache.ReadSharedReq_avg_miss_latency::total 96044.754920                       # average ReadSharedReq miss latency
system.l2cache.ReadSharedReq_mshr_misses::.cpu.inst         9767                       # number of ReadSharedReq MSHR misses
system.l2cache.ReadSharedReq_mshr_misses::.cpu.data      6421660                       # number of ReadSharedReq MSHR misses
system.l2cache.ReadSharedReq_mshr_misses::total      6431427                       # number of ReadSharedReq MSHR misses
system.l2cache.ReadSharedReq_mshr_miss_latency::.cpu.inst    764773000                       # number of ReadSharedReq MSHR miss cycles
system.l2cache.ReadSharedReq_mshr_miss_latency::.cpu.data 488311517000                       # number of ReadSharedReq MSHR miss cycles
system.l2cache.ReadSharedReq_mshr_miss_latency::total 489076290000                       # number of ReadSharedReq MSHR miss cycles
system.l2cache.ReadSharedReq_mshr_miss_rate::.cpu.inst     0.521296                       # mshr miss rate for ReadSharedReq accesses
system.l2cache.ReadSharedReq_mshr_miss_rate::.cpu.data     0.989352                       # mshr miss rate for ReadSharedReq accesses
system.l2cache.ReadSharedReq_mshr_miss_rate::total     0.988004                       # mshr miss rate for ReadSharedReq accesses
system.l2cache.ReadSharedReq_avg_mshr_miss_latency::.cpu.inst 78301.730316                       # average ReadSharedReq mshr miss latency
system.l2cache.ReadSharedReq_avg_mshr_miss_latency::.cpu.data 76041.322181                       # average ReadSharedReq mshr miss latency
system.l2cache.ReadSharedReq_avg_mshr_miss_latency::total 76044.754920                       # average ReadSharedReq mshr miss latency
system.l2cache.power_state.pwrStateResidencyTicks::UNDEFINED 1709551717000                       # Cumulative time (in ticks) in various power states
system.l2cache.replacement_policy.totalBypasses        64806                       # Total number of cache bypasses
system.l2cache.replacement_policy.effectiveBypasses           75                       # Bypasses that correctly skipped non-reused blocks
system.l2cache.replacement_policy.ineffectiveBypasses          297                       # Bypasses that incorrectly skipped requested blocks
system.l2cache.replacement_policy.virtualEffectiveBypasses          654                       # Virtual bypasses correctly predicting non-reused blocks
system.l2cache.replacement_policy.virtualIneffectiveBypasses       288945                       # Virtual bypasses incorrectly predicting requested blocks
system.l2cache.tags.tagsinuse             4092.815992                       # Cycle average of tags in use
system.l2cache.tags.total_refs               13123608                       # Total number of references to valid blocks.
system.l2cache.tags.sampled_refs              6480811                       # Sample count of references to valid blocks.
system.l2cache.tags.avg_refs                 2.024995                       # Average number of references to valid blocks.
system.l2cache.tags.warmup_cycle                86000                       # Cycle when the warmup percentage was hit.
system.l2cache.tags.occ_blocks::.writebacks    12.804868                       # Average occupied blocks per requestor
system.l2cache.tags.occ_blocks::.cpu.inst     5.591355                       # Average occupied blocks per requestor
system.l2cache.tags.occ_blocks::.cpu.data  4074.419769                       # Average occupied blocks per requestor
system.l2cache.tags.occ_percent::.writebacks     0.003126                       # Average percentage of cache occupancy
system.l2cache.tags.occ_percent::.cpu.inst     0.001365                       # Average percentage of cache occupancy
system.l2cache.tags.occ_percent::.cpu.data     0.994731                       # Average percentage of cache occupancy
system.l2cache.tags.occ_percent::total       0.999223                       # Average percentage of cache occupancy
system.l2cache.tags.occ_task_id_blocks::1024         4096                       # Occupied blocks per task id
system.l2cache.tags.age_task_id_blocks_1024::0           59                       # Occupied blocks per task id
system.l2cache.tags.age_task_id_blocks_1024::1          158                       # Occupied blocks per task id
system.l2cache.tags.age_task_id_blocks_1024::2         2164                       # Occupied blocks per task id
system.l2cache.tags.age_task_id_blocks_1024::3         1715                       # Occupied blocks per task id
system.l2cache.tags.occ_task_id_percent::1024            1                       # Percentage of cache occupancy per task id
system.l2cache.tags.tag_accesses            112510299                       # Number of tag accesses
system.l2cache.tags.data_accesses           112510299                       # Number of data accesses
system.l2cache.tags.power_state.pwrStateResidencyTicks::UNDEFINED 1709551717000                       # Cumulative time (in ticks) in various power states
system.mem_ctrl.avgPriority_.writebacks::samples    327170.00                       # Average QoS priority value for accepted requests
system.mem_ctrl.avgPriority_.cpu.inst::samples      9767.00                       # Average QoS priority value for accepted requests
system.mem_ctrl.avgPriority_.cpu.data::samples   6504741.00                       # Average QoS priority value for accepted requests
system.mem_ctrl.priorityMinLatency       0.000000018750                       # per QoS priority minimum request to response latency (s)
system.mem_ctrl.priorityMaxLatency       0.004014086500                       # per QoS priority maximum request to response latency (s)
system.mem_ctrl.numReadWriteTurnArounds         18607                       # Number of turnarounds from READ to WRITE
system.mem_ctrl.numWriteReadTurnArounds         18607                       # Number of turnarounds from WRITE to READ
system.mem_ctrl.numStayReadState             13790430                       # Number of times bus staying in READ state
system.mem_ctrl.numStayWriteState              308874                       # Number of times bus staying in WRITE state
system.mem_ctrl.readReqs                      6523033                       # Number of read requests accepted
system.mem_ctrl.writeReqs                      327170                       # Number of write requests accepted
system.mem_ctrl.readBursts                    6523033                       # Number of controller read bursts, including those serviced by the write queue
system.mem_ctrl.writeBursts                    327170                       # Number of controller write bursts, including those merged in the write queue
system.mem_ctrl.servicedByWrQ                    8525                       # Number of controller read bursts serviced by the write queue
system.mem_ctrl.mergedWrBursts                      0                       # Number of controller write bursts merged with an existing one
system.mem_ctrl.neitherReadNorWriteReqs             0                       # Number of requests that are neither read nor write
system.mem_ctrl.avgRdQLen                        1.00                       # Average read queue length when enqueuing
system.mem_ctrl.avgWrQLen                       23.20                       # Average write queue length when enqueuing
system.mem_ctrl.numRdRetry                          0                       # Number of times read queue was full causing retry
system.mem_ctrl.numWrRetry                          0                       # Number of times write queue was full causing retry
system.mem_ctrl.readPktSize::0                      0                       # Read request sizes (log2)
system.mem_ctrl.readPktSize::1                      0                       # Read request sizes (log2)
system.mem_ctrl.readPktSize::2                      0                       # Read request sizes (log2)
system.mem_ctrl.readPktSize::3                      0                       # Read request sizes (log2)
system.mem_ctrl.readPktSize::4                      0                       # Read request sizes (log2)
system.mem_ctrl.readPktSize::5                      0                       # Read request sizes (log2)
system.mem_ctrl.readPktSize::6                6523033                       # Read request sizes (log2)
system.mem_ctrl.writePktSize::0                     0                       # Write request sizes (log2)
system.mem_ctrl.writePktSize::1                     0                       # Write request sizes (log2)
system.mem_ctrl.writePktSize::2                     0                       # Write request sizes (log2)
system.mem_ctrl.writePktSize::3                     0                       # Write request sizes (log2)
system.mem_ctrl.writePktSize::4                     0                       # Write request sizes (log2)
system.mem_ctrl.writePktSize::5                     0                       # Write request sizes (log2)
system.mem_ctrl.writePktSize::6                327170                       # Write request sizes (log2)
system.mem_ctrl.rdQLenPdf::0                  6514426                       # What read queue length does an incoming req see
system.mem_ctrl.rdQLenPdf::1                       82                       # What read queue length does an incoming req see
system.mem_ctrl.rdQLenPdf::2                        0                       # What read queue length does an incoming req see
system.mem_ctrl.rdQLenPdf::3                        0                       # What read queue length does an incoming req see
system.mem_ctrl.rdQLenPdf::4                        0                       # What read queue length does an incoming req see
system.mem_ctrl.rdQLenPdf::5                        0                       # What read queue length does an incoming req see
system.mem_ctrl.rdQLenPdf::6                        0                       # What read queue length does an incoming req see
system.mem_ctrl.rdQLenPdf::7                        0                       # What read queue length does an incoming req see
system.mem_ctrl.rdQLenPdf::8                        0                       # What read queue length does an incoming req see
system.mem_ctrl.rdQLenPdf::9                        0                       # What read queue length does an incoming req see
system.mem_ctrl.rdQLenPdf::10                       0                       # What read queue length does an incoming req see
system.mem_ctrl.rdQLenPdf::11                       0                       # What read queue length does an incoming req see
system.mem_ctrl.rdQLenPdf::12                       0                       # What read queue length does an incoming req see
system.mem_ctrl.rdQLenPdf::13                       0                       # What read queue length does an incoming req see
system.mem_ctrl.rdQLenPdf::14                       0                       # What read queue length does an incoming req see
system.mem_ctrl.rdQLenPdf::15                       0                       # What read queue length does an incoming req see
system.mem_ctrl.rdQLenPdf::16                       0                       # What read queue length does an incoming req see
system.mem_ctrl.rdQLenPdf::17                       0                       # What read queue length does an incoming req see
system.mem_ctrl.rdQLenPdf::18                       0                       # What read queue length does an incoming req see
system.mem_ctrl.rdQLenPdf::19                       0                       # What read queue length does an incoming req see
system.mem_ctrl.rdQLenPdf::20                       0                       # What read queue length does an incoming req see
system.mem_ctrl.rdQLenPdf::21                       0                       # What read queue length does an incoming req see
system.mem_ctrl.rdQLenPdf::22                       0                       # What read queue length does an incoming req see
system.mem_ctrl.rdQLenPdf::23                       0                       # What read queue length does an incoming req see
system.mem_ctrl.rdQLenPdf::24                       0                       # What read queue length does an incoming req see
system.mem_ctrl.rdQLenPdf::25                       0                       # What read queue length does an incoming req see
system.mem_ctrl.rdQLenPdf::26                       0                       # What read queue length does an incoming req see
system.mem_ctrl.rdQLenPdf::27                       0                       # What read queue length does an incoming req see
system.mem_ctrl.rdQLenPdf::28                       0                       # What read queue length does an incoming req see
system.mem_ctrl.rdQLenPdf::29                       0                       # What read queue length does an incoming req see
system.mem_ctrl.rdQLenPdf::30                       0                       # What read queue length does an incoming req see
system.mem_ctrl.rdQLenPdf::31                       0                       # What read queue length does an incoming req see
system.mem_ctrl.wrQLenPdf::0                        1                       # What write queue length does an incoming req see
system.mem_ctrl.wrQLenPdf::1                        1                       # What write queue length does an incoming req see
system.mem_ctrl.wrQLenPdf::2                        1                       # What write queue length does an incoming req see
system.mem_ctrl.wrQLenPdf::3                        1                       # What write queue length does an incoming req see
system.mem_ctrl.wrQLenPdf::4                        1                       # What write queue length does an incoming req see
system.mem_ctrl.wrQLenPdf::5                        1                       # What write queue length does an incoming req see
system.mem_ctrl.wrQLenPdf::6                        1                       # What write queue length does an incoming req see
system.mem_ctrl.wrQLenPdf::7                        1                       # What write queue length does an incoming req see
system.mem_ctrl.wrQLenPdf::8                        1                       # What write queue length does an incoming req see
system.mem_ctrl.wrQLenPdf::9                        1                       # What write queue length does an incoming req see
system.mem_ctrl.wrQLenPdf::10                       1                       # What write queue length does an incoming req see
system.mem_ctrl.wrQLenPdf::11                       1                       # What write queue length does an incoming req see
system.mem_ctrl.wrQLenPdf::12                       1                       # What write queue length does an incoming req see
system.mem_ctrl.wrQLenPdf::13                       1                       # What write queue length does an incoming req see
system.mem_ctrl.wrQLenPdf::14                       1                       # What write queue length does an incoming req see
system.mem_ctrl.wrQLenPdf::15                   14648                       # What write queue length does an incoming req see
system.mem_ctrl.wrQLenPdf::16                   14756                       # What write queue length does an incoming req see
system.mem_ctrl.wrQLenPdf::17                   18604                       # What write queue length does an incoming req see
system.mem_ctrl.wrQLenPdf::18                   18611                       # What write queue length does an incoming req see
system.mem_ctrl.wrQLenPdf::19                   18612                       # What write queue length does an incoming req see
system.mem_ctrl.wrQLenPdf::20                   18610                       # What write queue length does an incoming req see
system.mem_ctrl.wrQLenPdf::21                   18619                       # What write queue length does an incoming req see
system.mem_ctrl.wrQLenPdf::22                   18614                       # What write queue length does an incoming req see
system.mem_ctrl.wrQLenPdf::23                   18609                       # What write queue length does an incoming req see
system.mem_ctrl.wrQLenPdf::24                   18608                       # What write queue length does an incoming req see
system.mem_ctrl.wrQLenPdf::25                   18609                       # What write queue length does an incoming req see
system.mem_ctrl.wrQLenPdf::26                   18609                       # What write queue length does an incoming req see
system.mem_ctrl.wrQLenPdf::27                   18607                       # What write queue length does an incoming req see
system.mem_ctrl.wrQLenPdf::28                   18607                       # What write queue length does an incoming req see
system.mem_ctrl.wrQLenPdf::29                   18609                       # What write queue length does an incoming req see
system.mem_ctrl.wrQLenPdf::30                   18607                       # What write queue length does an incoming req see
system.mem_ctrl.wrQLenPdf::31                   18608                       # What write queue length does an incoming req see
system.mem_ctrl.wrQLenPdf::32                   18607                       # What write queue length does an incoming req see
system.mem_ctrl.wrQLenPdf::33                       1                       # What write queue length does an incoming req see
system.mem_ctrl.wrQLenPdf::34                       0                       # What write queue length does an incoming req see
system.mem_ctrl.wrQLenPdf::35                       0                       # What write queue length does an incoming req see
system.mem_ctrl.wrQLenPdf::36                       0                       # What write queue length does an incoming req see
system.mem_ctrl.wrQLenPdf::37                       0                       # What write queue length does an incoming req see
system.mem_ctrl.wrQLenPdf::38                       0                       # What write queue length does an incoming req see
system.mem_ctrl.wrQLenPdf::39                       0                       # What write queue length does an incoming req see
system.mem_ctrl.wrQLenPdf::40                       0                       # What write queue length does an incoming req see
system.mem_ctrl.wrQLenPdf::41                       0                       # What write queue length does an incoming req see
system.mem_ctrl.wrQLenPdf::42                       0                       # What write queue length does an incoming req see
system.mem_ctrl.wrQLenPdf::43                       0                       # What write queue length does an incoming req see
system.mem_ctrl.wrQLenPdf::44                       0                       # What write queue length does an incoming req see
system.mem_ctrl.wrQLenPdf::45                       0                       # What write queue length does an incoming req see
system.mem_ctrl.wrQLenPdf::46                       0                       # What write queue length does an incoming req see
system.mem_ctrl.wrQLenPdf::47                       0                       # What write queue length does an incoming req see
system.mem_ctrl.wrQLenPdf::48                       0                       # What write queue length does an incoming req see
system.mem_ctrl.wrQLenPdf::49                       0                       # What write queue length does an incoming req see
system.mem_ctrl.wrQLenPdf::50                       0                       # What write queue length does an incoming req see
system.mem_ctrl.wrQLenPdf::51                       0                       # What write queue length does an incoming req see
system.mem_ctrl.wrQLenPdf::52                       0                       # What write queue length does an incoming req see
system.mem_ctrl.wrQLenPdf::53                       0                       # What write queue length does an incoming req see
system.mem_ctrl.wrQLenPdf::54                       0                       # What write queue length does an incoming req see
system.mem_ctrl.wrQLenPdf::55                       0                       # What write queue length does an incoming req see
system.mem_ctrl.wrQLenPdf::56                       0                       # What write queue length does an incoming req see
system.mem_ctrl.wrQLenPdf::57                       0                       # What write queue length does an incoming req see
system.mem_ctrl.wrQLenPdf::58                       0                       # What write queue length does an incoming req see
system.mem_ctrl.wrQLenPdf::59                       0                       # What write queue length does an incoming req see
system.mem_ctrl.wrQLenPdf::60                       0                       # What write queue length does an incoming req see
system.mem_ctrl.wrQLenPdf::61                       0                       # What write queue length does an incoming req see
system.mem_ctrl.wrQLenPdf::62                       0                       # What write queue length does an incoming req see
system.mem_ctrl.wrQLenPdf::63                       0                       # What write queue length does an incoming req see
system.mem_ctrl.rdPerTurnAround::samples        18607                       # Reads before turning the bus around for writes
system.mem_ctrl.rdPerTurnAround::mean      349.932176                       # Reads before turning the bus around for writes
system.mem_ctrl.rdPerTurnAround::gmean      59.092568                       # Reads before turning the bus around for writes
system.mem_ctrl.rdPerTurnAround::stdev     856.045333                       # Reads before turning the bus around for writes
system.mem_ctrl.rdPerTurnAround::0-255          15051     80.89%     80.89% # Reads before turning the bus around for writes
system.mem_ctrl.rdPerTurnAround::256-511          453      2.43%     83.32% # Reads before turning the bus around for writes
system.mem_ctrl.rdPerTurnAround::512-767           59      0.32%     83.64% # Reads before turning the bus around for writes
system.mem_ctrl.rdPerTurnAround::768-1023          660      3.55%     87.19% # Reads before turning the bus around for writes
system.mem_ctrl.rdPerTurnAround::1024-1279           66      0.35%     87.54% # Reads before turning the bus around for writes
system.mem_ctrl.rdPerTurnAround::1280-1535          123      0.66%     88.20% # Reads before turning the bus around for writes
system.mem_ctrl.rdPerTurnAround::1536-1791         1756      9.44%     97.64% # Reads before turning the bus around for writes
system.mem_ctrl.rdPerTurnAround::2048-2303            4      0.02%     97.66% # Reads before turning the bus around for writes
system.mem_ctrl.rdPerTurnAround::2304-2559           19      0.10%     97.76% # Reads before turning the bus around for writes
system.mem_ctrl.rdPerTurnAround::2560-2815            1      0.01%     97.77% # Reads before turning the bus around for writes
system.mem_ctrl.rdPerTurnAround::2816-3071            2      0.01%     97.78% # Reads before turning the bus around for writes
system.mem_ctrl.rdPerTurnAround::3584-3839            2      0.01%     97.79% # Reads before turning the bus around for writes
system.mem_ctrl.rdPerTurnAround::4096-4351           14      0.08%     97.87% # Reads before turning the bus around for writes
system.mem_ctrl.rdPerTurnAround::4352-4607            3      0.02%     97.88% # Reads before turning the bus around for writes
system.mem_ctrl.rdPerTurnAround::4608-4863            2      0.01%     97.89% # Reads before turning the bus around for writes
system.mem_ctrl.rdPerTurnAround::4864-5119          372      2.00%     99.89% # Reads before turning the bus around for writes
system.mem_ctrl.rdPerTurnAround::5120-5375           20      0.11%    100.00% # Reads before turning the bus around for writes
system.mem_ctrl.rdPerTurnAround::total          18607                       # Reads before turning the bus around for writes
system.mem_ctrl.wrPerTurnAround::samples        18607                       # Writes before turning the bus around for reads
system.mem_ctrl.wrPerTurnAround::mean       17.581717                       # Writes before turning the bus around for reads
system.mem_ctrl.wrPerTurnAround::gmean      17.561959                       # Writes before turning the bus around for reads
system.mem_ctrl.wrPerTurnAround::stdev       0.814899                       # Writes before turning the bus around for reads
system.mem_ctrl.wrPerTurnAround::16              3868     20.79%     20.79% # Writes before turning the bus around for reads
[...]
system.mem_ctrl.requestorReadRate::.cpu.data 243516133.416863441467                       # Per-requestor bytes read from memory rate (Bytes/sec)
system.mem_ctrl.requestorWriteRate::.writebacks 12247159.177343564108                       # Per-requestor bytes write to memory rate (Bytes/sec)
system.mem_ctrl.requestorReadAccesses::.cpu.inst         9767                       # Per-requestor read serviced memory accesses
system.mem_ctrl.requestorReadAccesses::.cpu.data      6513266                       # Per-requestor read serviced memory accesses
system.mem_ctrl.requestorWriteAccesses::.writebacks       327170                       # Per-requestor write serviced memory accesses
system.mem_ctrl.requestorReadTotalLat::.cpu.inst    263396000                       # Per-requestor read total memory access latency
system.mem_ctrl.requestorReadTotalLat::.cpu.data 162260692250                       # Per-requestor read total memory access latency
system.mem_ctrl.requestorWriteTotalLat::.writebacks 37701775330500                       # Per-requestor write total memory access latency
system.mem_ctrl.requestorReadAvgLat::.cpu.inst     26967.95                       # Per-requestor read average memory access latency
system.mem_ctrl.requestorReadAvgLat::.cpu.data     24912.34                       # Per-requestor read average memory access latency
system.mem_ctrl.requestorWriteAvgLat::.writebacks 115236040.38                       # Per-requestor write average memory access latency
system.mem_ctrl.dram.bytes_read::.cpu.inst       625088                       # Number of bytes read from this memory
system.mem_ctrl.dram.bytes_read::.cpu.data    416849024                       # Number of bytes read from this memory
system.mem_ctrl.dram.bytes_read::total      417474112                       # Number of bytes read from this memory
system.mem_ctrl.dram.bytes_inst_read::.cpu.inst       625088                       # Number of instructions bytes read from this memory
system.mem_ctrl.dram.bytes_inst_read::total       625088                       # Number of instructions bytes read from this memory
system.mem_ctrl.dram.bytes_written::.writebacks     20938880                       # Number of bytes written to this memory
system.mem_ctrl.dram.bytes_written::total     20938880                       # Number of bytes written to this memory
system.mem_ctrl.dram.num_reads::.cpu.inst         9767                       # Number of read requests responded to by this memory
system.mem_ctrl.dram.num_reads::.cpu.data      6513266                       # Number of read requests responded to by this memory
system.mem_ctrl.dram.num_reads::total         6523033                       # Number of read requests responded to by this memory
system.mem_ctrl.dram.num_writes::.writebacks       327170                       # Number of write requests responded to by this memory
system.mem_ctrl.dram.num_writes::total         327170                       # Number of write requests responded to by this memory
system.mem_ctrl.dram.bw_read::.cpu.inst        365644                       # Total read bandwidth from this memory (bytes/s)
system.mem_ctrl.dram.bw_read::.cpu.data     243835281                       # Total read bandwidth from this memory (bytes/s)
system.mem_ctrl.dram.bw_read::total         244200926                       # Total read bandwidth from this memory (bytes/s)
system.mem_ctrl.dram.bw_inst_read::.cpu.inst       365644                       # Instruction read bandwidth from this memory (bytes/s)
system.mem_ctrl.dram.bw_inst_read::total       365644                       # Instruction read bandwidth from this memory (bytes/s)
system.mem_ctrl.dram.bw_write::.writebacks     12248170                       # Write bandwidth from this memory (bytes/s)
system.mem_ctrl.dram.bw_write::total         12248170                       # Write bandwidth from this memory (bytes/s)
system.mem_ctrl.dram.bw_total::.writebacks     12248170                       # Total bandwidth to/from this memory (bytes/s)
system.mem_ctrl.dram.bw_total::.cpu.inst       365644                       # Total bandwidth to/from this memory (bytes/s)
system.mem_ctrl.dram.bw_total::.cpu.data    243835281                       # Total bandwidth to/from this memory (bytes/s)
system.mem_ctrl.dram.bw_total::total        256449096                       # Total bandwidth to/from this memory (bytes/s)
system.mem_ctrl.dram.readBursts               6514508                       # Number of DRAM read bursts
system.mem_ctrl.dram.writeBursts               327143                       # Number of DRAM write bursts
system.mem_ctrl.dram.perBankRdBursts::0        435109                       # Per bank write bursts
system.mem_ctrl.dram.perBankRdBursts::1        391237                       # Per bank write bursts
system.mem_ctrl.dram.perBankRdBursts::2        381354                       # Per bank write bursts
system.mem_ctrl.dram.perBankRdBursts::3        381403                       # Per bank write bursts
system.mem_ctrl.dram.perBankRdBursts::4        382362                       # Per bank write bursts
system.mem_ctrl.dram.perBankRdBursts::5        405866                       # Per bank write bursts
system.mem_ctrl.dram.perBankRdBursts::6        440443                       # Per bank write bursts
system.mem_ctrl.dram.perBankRdBursts::7        407529                       # Per bank write bursts
system.mem_ctrl.dram.perBankRdBursts::8        437523                       # Per bank write bursts
system.mem_ctrl.dram.perBankRdBursts::9        384665                       # Per bank write bursts
system.mem_ctrl.dram.perBankRdBursts::10       382030                       # Per bank write bursts
system.mem_ctrl.dram.perBankRdBursts::11       381217                       # Per bank write bursts
system.mem_ctrl.dram.perBankRdBursts::12       398174                       # Per bank write bursts
system.mem_ctrl.dram.perBankRdBursts::13       434319                       # Per bank write bursts
system.mem_ctrl.dram.perBankRdBursts::14       434869                       # Per bank write bursts
system.mem_ctrl.dram.perBankRdBursts::15       436408                       # Per bank write bursts
system.mem_ctrl.dram.perBankWrBursts::0          7507                       # Per bank write bursts
system.mem_ctrl.dram.perBankWrBursts::1          6909                       # Per bank write bursts
system.mem_ctrl.dram.perBankWrBursts::2          6896                       # Per bank write bursts
system.mem_ctrl.dram.perBankWrBursts::3          6973                       # Per bank write bursts
system.mem_ctrl.dram.perBankWrBursts::4          8024                       # Per bank write bursts
system.mem_ctrl.dram.perBankWrBursts::5         31128                       # Per bank write bursts
system.mem_ctrl.dram.perBankWrBursts::6         52870                       # Per bank write bursts
system.mem_ctrl.dram.perBankWrBursts::7          8363                       # Per bank write bursts
system.mem_ctrl.dram.perBankWrBursts::8         43824                       # Per bank write bursts
system.mem_ctrl.dram.perBankWrBursts::9         58826                       # Per bank write bursts
system.mem_ctrl.dram.perBankWrBursts::10        60036                       # Per bank write bursts
system.mem_ctrl.dram.perBankWrBursts::11         7393                       # Per bank write bursts
system.mem_ctrl.dram.perBankWrBursts::12         6510                       # Per bank write bursts
system.mem_ctrl.dram.perBankWrBursts::13         6931                       # Per bank write bursts
system.mem_ctrl.dram.perBankWrBursts::14         6794                       # Per bank write bursts
system.mem_ctrl.dram.perBankWrBursts::15         8159                       # Per bank write bursts
system.mem_ctrl.dram.totQLat              40377063250                       # Total ticks spent queuing
system.mem_ctrl.dram.totBusLat            32572540000                       # Total ticks spent in databus transfers
system.mem_ctrl.dram.totMemAccLat        162524088250                       # Total ticks spent from burst creation until serviced by the DRAM
system.mem_ctrl.dram.avgQLat                  6198.02                       # Average queueing delay per DRAM burst
system.mem_ctrl.dram.avgBusLat                5000.00                       # Average bus latency per DRAM burst
system.mem_ctrl.dram.avgMemAccLat            24948.02                       # Average memory access latency per DRAM burst
system.mem_ctrl.dram.readRowHits              5565746                       # Number of row buffer hits during reads
system.mem_ctrl.dram.writeRowHits              252593                       # Number of row buffer hits during writes
system.mem_ctrl.dram.readRowHitRate             85.44                       # Row buffer hit rate for reads
system.mem_ctrl.dram.writeRowHitRate            77.21                       # Row buffer hit rate for writes
system.mem_ctrl.dram.bytesPerActivate::samples      1023309                       # Bytes accessed per row activation
system.mem_ctrl.dram.bytesPerActivate::mean   427.891306                       # Bytes accessed per row activation
system.mem_ctrl.dram.bytesPerActivate::gmean   263.207740                       # Bytes accessed per row activation
system.mem_ctrl.dram.bytesPerActivate::stdev   359.734910                       # Bytes accessed per row activation
system.mem_ctrl.dram.bytesPerActivate::0-127       278266     27.19%     27.19% # Bytes accessed per row activation
system.mem_ctrl.dram.bytesPerActivate::128-255       160037     15.64%     42.83% # Bytes accessed per row activation
system.mem_ctrl.dram.bytesPerActivate::256-383       100024      9.77%     52.61% # Bytes accessed per row activation
system.mem_ctrl.dram.bytesPerActivate::384-511        94210      9.21%     61.81% # Bytes accessed per row activation
system.mem_ctrl.dram.bytesPerActivate::512-639        19218      1.88%     63.69% # Bytes accessed per row activation
system.mem_ctrl.dram.bytesPerActivate::640-767       170947     16.71%     80.40% # Bytes accessed per row activation
system.mem_ctrl.dram.bytesPerActivate::768-895         9323      0.91%     81.31% # Bytes accessed per row activation
system.mem_ctrl.dram.bytesPerActivate::896-1023         8914      0.87%     82.18% # Bytes accessed per row activation
system.mem_ctrl.dram.bytesPerActivate::1024-1151       182370     17.82%    100.00% # Bytes accessed per row activation
system.mem_ctrl.dram.bytesPerActivate::total      1023309                       # Bytes accessed per row activation
system.mem_ctrl.dram.bytesRead              416928512                       # Total number of bytes read from DRAM
system.mem_ctrl.dram.bytesWritten            20937152                       # Total number of bytes written to DRAM
system.mem_ctrl.dram.avgRdBW               243.881778                       # Average DRAM read bandwidth in MiBytes/s
system.mem_ctrl.dram.avgWrBW                12.247159                       # Average DRAM write bandwidth in MiBytes/s
system.mem_ctrl.dram.peakBW                  12800.00                       # Theoretical peak bandwidth in MiByte/s
system.mem_ctrl.dram.busUtil                     2.00                       # Data bus utilization in percentage
system.mem_ctrl.dram.busUtilRead                 1.91                       # Data bus utilization in percentage for reads
system.mem_ctrl.dram.busUtilWrite                0.10                       # Data bus utilization in percentage for writes
system.mem_ctrl.dram.pageHitRate                85.04                       # Row buffer hit rate, read and write combined
system.mem_ctrl.dram.power_state.pwrStateResidencyTicks::UNDEFINED 1709551717000                       # Cumulative time (in ticks) in various power states
system.mem_ctrl.dram.rank0.actEnergy       2878034040                       # Energy for activate commands per rank (pJ)
system.mem_ctrl.dram.rank0.preEnergy       1529703780                       # Energy for precharge commands per rank (pJ)
system.mem_ctrl.dram.rank0.readEnergy     23028663420                       # Energy for read commands per rank (pJ)
system.mem_ctrl.dram.rank0.writeEnergy      671657400                       # Energy for write commands per rank (pJ)
system.mem_ctrl.dram.rank0.refreshEnergy 134950358400.000015                       # Energy for refresh commands per rank (pJ)
system.mem_ctrl.dram.rank0.actBackEnergy 558946294380                       # Energy for active background per rank (pJ)
system.mem_ctrl.dram.rank0.preBackEnergy 185776243200                       # Energy for precharge background per rank (pJ)
system.mem_ctrl.dram.rank0.actPowerDownEnergy            0                       # Energy for active power-down per rank (pJ)
system.mem_ctrl.dram.rank0.prePowerDownEnergy            0                       # Energy for precharge power-down per rank (pJ)
system.mem_ctrl.dram.rank0.selfRefreshEnergy            0                       # Energy for self refresh per rank (pJ)
system.mem_ctrl.dram.rank0.totalEnergy   907780954620                       # Total energy per rank (pJ)
system.mem_ctrl.dram.rank0.averagePower    531.005260                       # Core power per rank (mW)
system.mem_ctrl.dram.rank0.totalIdleTime            0                       # Total Idle time Per DRAM Rank
system.mem_ctrl.dram.rank0.pwrStateTime::IDLE 477737635000                       # Time in different power states
system.mem_ctrl.dram.rank0.pwrStateTime::REF  57085600000                       # Time in different power states
system.mem_ctrl.dram.rank0.pwrStateTime::SREF            0                       # Time in different power states
system.mem_ctrl.dram.rank0.pwrStateTime::PRE_PDN            0                       # Time in different power states
system.mem_ctrl.dram.rank0.pwrStateTime::ACT 1174728482000                       # Time in different power states
system.mem_ctrl.dram.rank0.pwrStateTime::ACT_PDN            0                       # Time in different power states
system.mem_ctrl.dram.rank1.actEnergy       4428413640                       # Energy for activate commands per rank (pJ)
system.mem_ctrl.dram.rank1.preEnergy       2353753875                       # Energy for precharge commands per rank (pJ)
system.mem_ctrl.dram.rank1.readEnergy     23484923700                       # Energy for read commands per rank (pJ)
system.mem_ctrl.dram.rank1.writeEnergy     1036029060                       # Energy for write commands per rank (pJ)
system.mem_ctrl.dram.rank1.refreshEnergy 134950358400.000015                       # Energy for refresh commands per rank (pJ)
system.mem_ctrl.dram.rank1.actBackEnergy 599927397990                       # Energy for active background per rank (pJ)
system.mem_ctrl.dram.rank1.preBackEnergy 151265840160                       # Energy for precharge background per rank (pJ)
system.mem_ctrl.dram.rank1.actPowerDownEnergy            0                       # Energy for active power-down per rank (pJ)
system.mem_ctrl.dram.rank1.prePowerDownEnergy            0                       # Energy for precharge power-down per rank (pJ)
system.mem_ctrl.dram.rank1.selfRefreshEnergy            0                       # Energy for self refresh per rank (pJ)
system.mem_ctrl.dram.rank1.totalEnergy   917446716825                       # Total energy per rank (pJ)
system.mem_ctrl.dram.rank1.averagePower    536.659235                       # Core power per rank (mW)
system.mem_ctrl.dram.rank1.totalIdleTime            0                       # Total Idle time Per DRAM Rank
system.mem_ctrl.dram.rank1.pwrStateTime::IDLE 385347239750                       # Time in different power states
system.mem_ctrl.dram.rank1.pwrStateTime::REF  57085600000                       # Time in different power states
system.mem_ctrl.dram.rank1.pwrStateTime::SREF            0                       # Time in different power states
system.mem_ctrl.dram.rank1.pwrStateTime::PRE_PDN            0                       # Time in different power states
system.mem_ctrl.dram.rank1.pwrStateTime::ACT 1267118877250                       # Time in different power states
system.mem_ctrl.dram.rank1.pwrStateTime::ACT_PDN            0                       # Time in different power states
system.mem_ctrl.power_state.pwrStateResidencyTicks::UNDEFINED 1709551717000                       # Cumulative time (in ticks) in various power states
system.membus.trans_dist::ReadResp            6431427                       # Transaction distribution
system.membus.trans_dist::WritebackDirty       327170                       # Transaction distribution
system.membus.trans_dist::CleanEvict          6191673                       # Transaction distribution
system.membus.trans_dist::ReadExReq             91606                       # Transaction distribution
system.membus.trans_dist::ReadExResp            91606                       # Transaction distribution
system.membus.trans_dist::ReadSharedReq       6431427                       # Transaction distribution
system.membus.pkt_count_system.l2cache.mem_side_port::system.mem_ctrl.port     19564909                       # Packet count per connected requestor and responder (bytes)
system.membus.pkt_count_system.l2cache.mem_side_port::total     19564909                       # Packet count per connected requestor and responder (bytes)
system.membus.pkt_count::total               19564909                       # Packet count per connected requestor and responder (bytes)
system.membus.pkt_size_system.l2cache.mem_side_port::system.mem_ctrl.port    438412992                       # Cumulative packet size per connected requestor and responder (bytes)
system.membus.pkt_size_system.l2cache.mem_side_port::total    438412992                       # Cumulative packet size per connected requestor and responder (bytes)
system.membus.pkt_size::total               438412992                       # Cumulative packet size per connected requestor and responder (bytes)
system.membus.snoops                                0                       # Total snoops (count)
system.membus.snoopTraffic                          0                       # Total snoop traffic (bytes)
system.membus.snoop_fanout::samples           6523033                       # Request fanout histogram
system.membus.snoop_fanout::mean                    0                       # Request fanout histogram
system.membus.snoop_fanout::stdev                   0                       # Request fanout histogram
system.membus.snoop_fanout::underflows              0      0.00%      0.00% # Request fanout histogram
system.membus.snoop_fanout::0                 6523033    100.00%    100.00% # Request fanout histogram
system.membus.snoop_fanout::1                       0      0.00%    100.00% # Request fanout histogram
system.membus.snoop_fanout::overflows               0      0.00%    100.00% # Request fanout histogram
system.membus.snoop_fanout::min_value               0                       # Request fanout histogram
system.membus.snoop_fanout::max_value               0                       # Request fanout histogram
system.membus.snoop_fanout::total             6523033                       # Request fanout histogram
system.membus.power_state.pwrStateResidencyTicks::UNDEFINED 1709551717000                       # Cumulative time (in ticks) in various power states
system.membus.reqLayer2.occupancy         14350556000                       # Layer occupancy (ticks)
system.membus.reqLayer2.utilization               0.8                       # Layer utilization (%)
system.membus.respLayer0.occupancy        34518172000                       # Layer occupancy (ticks)
system.membus.respLayer0.utilization              2.0                       # Layer utilization (%)

---------- End Simulation Statistics   ----------
