
---------- Begin Simulation Statistics ----------
final_tick                                  176594000                       # Number of ticks from beginning of simulation (restored from checkpoints and never reset)
host_inst_rate                                  22281                       # Simulator instruction rate (inst/s)
host_mem_usage                                 645088                       # Number of bytes of host memory used
host_op_rate                                    45554                       # Simulator op (including micro ops) rate (op/s)
host_seconds                                     1.52                       # Real time elapsed on the host
host_tick_rate                              116424708                       # Simulator tick rate (ticks/s)
sim_freq                                 1000000000000                       # Frequency of simulated ticks
sim_insts                                       33790                       # Number of instructions simulated
sim_ops                                         69094                       # Number of ops (including micro ops) simulated
sim_seconds                                  0.000177                       # Number of seconds simulated
sim_ticks                                   176594000                       # Number of ticks simulated
system.cpu.cc_regfile_reads                     22501                       # number of cc regfile reads
system.cpu.cc_regfile_writes                    53167                       # number of cc regfile writes
system.cpu.committedInsts                       33790                       # Number of Instructions Simulated
system.cpu.committedOps                         69094                       # Number of Ops (including micro ops) Simulated
system.cpu.cpi                               5.226250                       # CPI: Cycles Per Instruction
system.cpu.cpi_total                         5.226250                       # CPI: Total CPI of All Threads
system.cpu.fp_regfile_reads                      1737                       # number of floating regfile reads
system.cpu.fp_regfile_writes                      805                       # number of floating regfile writes
system.cpu.idleCycles                           21696                       # Total number of cycles that the CPU has spent unscheduled due to idling
system.cpu.iew.branchMispredicts                  653                       # Number of branch mispredicts detected at execute
system.cpu.iew.exec_branches                     4642                       # Number of branches executed
system.cpu.iew.exec_nop                             0                       # number of nop insts executed
system.cpu.iew.exec_rate                     1.652312                       # Inst execution rate
system.cpu.iew.exec_refs                       234817                       # number of memory reference insts executed
system.cpu.iew.exec_stores                       2117                       # Number of stores executed
system.cpu.iew.exec_swp                             0                       # number of swp insts executed
system.cpu.iew.iewBlockCycles                    9949                       # Number of cycles IEW is blocking
system.cpu.iew.iewDispLoadInsts                 19800                       # Number of dispatched load instructions
system.cpu.iew.iewDispNonSpecInsts                  0                       # Number of dispatched non-speculative instructions
system.cpu.iew.iewDispSquashedInsts                85                       # Number of squashed instructions skipped by dispatch
system.cpu.iew.iewDispStoreInsts                 2573                       # Number of dispatched store instructions
system.cpu.iew.iewDispatchedInsts               82743                       # Number of instructions dispatched to IQ
system.cpu.iew.iewExecLoadInsts                232700                       # Number of load instructions executed
system.cpu.iew.iewExecSquashedInsts               841                       # Number of squashed instructions skipped in execute
system.cpu.iew.iewExecutedInsts                291790                       # Number of executed instructions
system.cpu.iew.iewIQFullEvents                     32                       # Number of times the IQ has become full, causing a stall
system.cpu.iew.iewIdleCycles                        0                       # Number of cycles IEW is idle
system.cpu.iew.iewLSQFullEvents                  5316                       # Number of times the LSQ has become full, causing a stall
system.cpu.iew.iewSquashCycles                    576                       # Number of cycles IEW is squashing
system.cpu.iew.iewUnblockCycles                  5413                       # Number of cycles IEW is unblocking
system.cpu.iew.memOrderViolationEvents             16                       # Number of memory order violations
system.cpu.iew.predictedNotTakenIncorrect          574                       # Number of branches that were predicted not taken incorrectly
system.cpu.iew.predictedTakenIncorrect             79                       # Number of branches that were predicted taken incorrectly
system.cpu.iew.wb_consumers                     74863                       # num instructions consuming a value
system.cpu.iew.wb_count                         77700                       # cumulative count of insts written-back
system.cpu.iew.wb_fanout                     0.844543                       # average fanout of values written-back
system.cpu.iew.wb_producers                     63225                       # num instructions producing a value
system.cpu.iew.wb_rate                       0.439990                       # insts written-back per cycle
system.cpu.iew.wb_sent                          77965                       # cumulative count of insts sent to commit
system.cpu.int_regfile_reads                   544749                       # number of integer regfile reads
system.cpu.int_regfile_writes                   69815                       # number of integer regfile writes
system.cpu.ipc                               0.191342                       # IPC: Instructions Per Cycle
system.cpu.ipc_total                         0.191342                       # IPC: Total IPC of All Threads
system.cpu.iq.FU_type_0::No_OpClass               643      0.22%      0.22% # Type of FU issued
system.cpu.iq.FU_type_0::IntAlu                 56262     19.23%     19.45% # Type of FU issued
system.cpu.iq.FU_type_0::IntMult                    6      0.00%     19.45% # Type of FU issued
system.cpu.iq.FU_type_0::IntDiv                    30      0.01%     19.46% # Type of FU issued
system.cpu.iq.FU_type_0::FloatAdd                 136      0.05%     19.50% # Type of FU issued
system.cpu.iq.FU_type_0::FloatCmp                   0      0.00%     19.50% # Type of FU issued
system.cpu.iq.FU_type_0::FloatCvt                   0      0.00%     19.50% # Type of FU issued
system.cpu.iq.FU_type_0::FloatMult                  0      0.00%     19.50% # Type of FU issued
system.cpu.iq.FU_type_0::FloatMultAcc               0      0.00%     19.50% # Type of FU issued
system.cpu.iq.FU_type_0::FloatDiv                   0      0.00%     19.50% # Type of FU issued
system.cpu.iq.FU_type_0::FloatMisc                  0      0.00%     19.50% # Type of FU issued
system.cpu.iq.FU_type_0::FloatSqrt                  0      0.00%     19.50% # Type of FU issued
system.cpu.iq.FU_type_0::SimdAdd                    0      0.00%     19.50% # Type of FU issued
system.cpu.iq.FU_type_0::SimdAddAcc                 0      0.00%     19.50% # Type of FU issued
system.cpu.iq.FU_type_0::SimdAlu                  164      0.06%     19.56% # Type of FU issued
system.cpu.iq.FU_type_0::SimdCmp                   12      0.00%     19.56% # Type of FU issued
system.cpu.iq.FU_type_0::SimdCvt                   78      0.03%     19.59% # Type of FU issued
system.cpu.iq.FU_type_0::SimdMisc                 248      0.08%     19.68% # Type of FU issued
system.cpu.iq.FU_type_0::SimdMult                   0      0.00%     19.68% # Type of FU issued
system.cpu.iq.FU_type_0::SimdMultAcc                0      0.00%     19.68% # Type of FU issued
system.cpu.iq.FU_type_0::SimdShift                  0      0.00%     19.68% # Type of FU issued
system.cpu.iq.FU_type_0::SimdShiftAcc               0      0.00%     19.68% # Type of FU issued
system.cpu.iq.FU_type_0::SimdDiv                    0      0.00%     19.68% # Type of FU issued
system.cpu.iq.FU_type_0::SimdSqrt                   0      0.00%     19.68% # Type of FU issued
system.cpu.iq.FU_type_0::SimdFloatAdd               0      0.00%     19.68% # Type of FU issued
system.cpu.iq.FU_type_0::SimdFloatAlu               0      0.00%     19.68% # Type of FU issued
system.cpu.iq.FU_type_0::SimdFloatCmp               0      0.00%     19.68% # Type of FU issued
system.cpu.iq.FU_type_0::SimdFloatCvt               0      0.00%     19.68% # Type of FU issued
system.cpu.iq.FU_type_0::SimdFloatDiv               0      0.00%     19.68% # Type of FU issued
system.cpu.iq.FU_type_0::SimdFloatMisc              0      0.00%     19.68% # Type of FU issued
system.cpu.iq.FU_type_0::SimdFloatMult              0      0.00%     19.68% # Type of FU issued
system.cpu.iq.FU_type_0::SimdFloatMultAcc            0      0.00%     19.68% # Type of FU issued
system.cpu.iq.FU_type_0::SimdFloatSqrt              0      0.00%     19.68% # Type of FU issued
system.cpu.iq.FU_type_0::SimdReduceAdd              0      0.00%     19.68% # Type of FU issued
system.cpu.iq.FU_type_0::SimdReduceAlu              0      0.00%     19.68% # Type of FU issued
system.cpu.iq.FU_type_0::SimdReduceCmp              0      0.00%     19.68% # Type of FU issued
system.cpu.iq.FU_type_0::SimdFloatReduceAdd            0      0.00%     19.68% # Type of FU issued
system.cpu.iq.FU_type_0::SimdFloatReduceCmp            0      0.00%     19.68% # Type of FU issued
system.cpu.iq.FU_type_0::SimdAes                    0      0.00%     19.68% # Type of FU issued
system.cpu.iq.FU_type_0::SimdAesMix                 0      0.00%     19.68% # Type of FU issued
system.cpu.iq.FU_type_0::SimdSha1Hash               0      0.00%     19.68% # Type of FU issued
system.cpu.iq.FU_type_0::SimdSha1Hash2              0      0.00%     19.68% # Type of FU issued
system.cpu.iq.FU_type_0::SimdSha256Hash             0      0.00%     19.68% # Type of FU issued
system.cpu.iq.FU_type_0::SimdSha256Hash2            0      0.00%     19.68% # Type of FU issued
system.cpu.iq.FU_type_0::SimdShaSigma2              0      0.00%     19.68% # Type of FU issued
system.cpu.iq.FU_type_0::SimdShaSigma3              0      0.00%     19.68% # Type of FU issued
system.cpu.iq.FU_type_0::SimdPredAlu                0      0.00%     19.68% # Type of FU issued
system.cpu.iq.FU_type_0::MemRead               232758     79.54%     99.21% # Type of FU issued
system.cpu.iq.FU_type_0::MemWrite                1651      0.56%     99.78% # Type of FU issued
system.cpu.iq.FU_type_0::FloatMemRead             105      0.04%     99.81% # Type of FU issued
system.cpu.iq.FU_type_0::FloatMemWrite            544      0.19%    100.00% # Type of FU issued
system.cpu.iq.FU_type_0::IprAccess                  0      0.00%    100.00% # Type of FU issued
system.cpu.iq.FU_type_0::InstPrefetch               0      0.00%    100.00% # Type of FU issued
system.cpu.iq.FU_type_0::total                 292637                       # Type of FU issued
system.cpu.iq.fp_alu_accesses                    1507                       # Number of floating point alu accesses
system.cpu.iq.fp_inst_queue_reads                2965                       # Number of floating instruction queue reads
system.cpu.iq.fp_inst_queue_wakeup_accesses         1413                       # Number of floating instruction queue wakeup accesses
system.cpu.iq.fp_inst_queue_writes               1737                       # Number of floating instruction queue writes
system.cpu.iq.fu_busy_cnt                       50719                       # FU busy when requested
system.cpu.iq.fu_busy_rate                   0.173317                       # FU busy rate (busy events/executed inst)
system.cpu.iq.fu_full::No_OpClass                   0      0.00%      0.00% # attempts to use FU when none available
system.cpu.iq.fu_full::IntAlu                     212      0.42%      0.42% # attempts to use FU when none available
system.cpu.iq.fu_full::IntMult                      0      0.00%      0.42% # attempts to use FU when none available
system.cpu.iq.fu_full::IntDiv                       0      0.00%      0.42% # attempts to use FU when none available
system.cpu.iq.fu_full::FloatAdd                     0      0.00%      0.42% # attempts to use FU when none available
system.cpu.iq.fu_full::FloatCmp                     0      0.00%      0.42% # attempts to use FU when none available
system.cpu.iq.fu_full::FloatCvt                     0      0.00%      0.42% # attempts to use FU when none available
system.cpu.iq.fu_full::FloatMult                    0      0.00%      0.42% # attempts to use FU when none available
system.cpu.iq.fu_full::FloatMultAcc                 0      0.00%      0.42% # attempts to use FU when none available
system.cpu.iq.fu_full::FloatDiv                     0      0.00%      0.42% # attempts to use FU when none available
system.cpu.iq.fu_full::FloatMisc                    0      0.00%      0.42% # attempts to use FU when none available
system.cpu.iq.fu_full::FloatSqrt                    0      0.00%      0.42% # attempts to use FU when none available
system.cpu.iq.fu_full::SimdAdd                      0      0.00%      0.42% # attempts to use FU when none available
system.cpu.iq.fu_full::SimdAddAcc                   0      0.00%      0.42% # attempts to use FU when none available
system.cpu.iq.fu_full::SimdAlu                     11      0.02%      0.44% # attempts to use FU when none available
system.cpu.iq.fu_full::SimdCmp                      0      0.00%      0.44% # attempts to use FU when none available
system.cpu.iq.fu_full::SimdCvt                      5      0.01%      0.45% # attempts to use FU when none available
system.cpu.iq.fu_full::SimdMisc                     5      0.01%      0.46% # attempts to use FU when none available
system.cpu.iq.fu_full::SimdMult                     0      0.00%      0.46% # attempts to use FU when none available
system.cpu.iq.fu_full::SimdMultAcc                  0      0.00%      0.46% # attempts to use FU when none available
system.cpu.iq.fu_full::SimdShift                    0      0.00%      0.46% # attempts to use FU when none available
system.cpu.iq.fu_full::SimdShiftAcc                 0      0.00%      0.46% # attempts to use FU when none available
system.cpu.iq.fu_full::SimdDiv                      0      0.00%      0.46% # attempts to use FU when none available
system.cpu.iq.fu_full::SimdSqrt                     0      0.00%      0.46% # attempts to use FU when none available
system.cpu.iq.fu_full::SimdFloatAdd                 0      0.00%      0.46% # attempts to use FU when none available
system.cpu.iq.fu_full::SimdFloatAlu                 0      0.00%      0.46% # attempts to use FU when none available
system.cpu.iq.fu_full::SimdFloatCmp                 0      0.00%      0.46% # attempts to use FU when none available
system.cpu.iq.fu_full::SimdFloatCvt                 0      0.00%      0.46% # attempts to use FU when none available
system.cpu.iq.fu_full::SimdFloatDiv                 0      0.00%      0.46% # attempts to use FU when none available
system.cpu.iq.fu_full::SimdFloatMisc                0      0.00%      0.46% # attempts to use FU when none available
system.cpu.iq.fu_full::SimdFloatMult                0      0.00%      0.46% # attempts to use FU when none available
system.cpu.iq.fu_full::SimdFloatMultAcc             0      0.00%      0.46% # attempts to use FU when none available
system.cpu.iq.fu_full::SimdFloatSqrt                0      0.00%      0.46% # attempts to use FU when none available
system.cpu.iq.fu_full::SimdReduceAdd                0      0.00%      0.46% # attempts to use FU when none available
system.cpu.iq.fu_full::SimdReduceAlu                0      0.00%      0.46% # attempts to use FU when none available
system.cpu.iq.fu_full::SimdReduceCmp                0      0.00%      0.46% # attempts to use FU when none available
system.cpu.iq.fu_full::SimdFloatReduceAdd            0      0.00%      0.46% # attempts to use FU when none available
system.cpu.iq.fu_full::SimdFloatReduceCmp            0      0.00%      0.46% # attempts to use FU when none available
system.cpu.iq.fu_full::SimdAes                      0      0.00%      0.46% # attempts to use FU when none available
system.cpu.iq.fu_full::SimdAesMix                   0      0.00%      0.46% # attempts to use FU when none available
system.cpu.iq.fu_full::SimdSha1Hash                 0      0.00%      0.46% # attempts to use FU when none available
system.cpu.iq.fu_full::SimdSha1Hash2                0      0.00%      0.46% # attempts to use FU when none available
system.cpu.iq.fu_full::SimdSha256Hash               0      0.00%      0.46% # attempts to use FU when none available
system.cpu.iq.fu_full::SimdSha256Hash2              0      0.00%      0.46% # attempts to use FU when none available
system.cpu.iq.fu_full::SimdShaSigma2                0      0.00%      0.46% # attempts to use FU when none available
system.cpu.iq.fu_full::SimdShaSigma3                0      0.00%      0.46% # attempts to use FU when none available
system.cpu.iq.fu_full::SimdPredAlu                  0      0.00%      0.46% # attempts to use FU when none available
system.cpu.iq.fu_full::MemRead                  50430     99.43%     99.89% # attempts to use FU when none available
system.cpu.iq.fu_full::MemWrite                    17      0.03%     99.92% # attempts to use FU when none available
system.cpu.iq.fu_full::FloatMemRead                 6      0.01%     99.93% # attempts to use FU when none available
system.cpu.iq.fu_full::FloatMemWrite               33      0.07%    100.00% # attempts to use FU when none available
system.cpu.iq.fu_full::IprAccess                    0      0.00%    100.00% # attempts to use FU when none available
system.cpu.iq.fu_full::InstPrefetch                 0      0.00%    100.00% # attempts to use FU when none available
system.cpu.iq.int_alu_accesses                 341206                       # Number of integer alu accesses
system.cpu.iq.int_inst_queue_reads             787999                       # Number of integer instruction queue reads
system.cpu.iq.int_inst_queue_wakeup_accesses        76287                       # Number of integer instruction queue wakeup accesses
system.cpu.iq.int_inst_queue_writes             94657                       # Number of integer instruction queue writes
system.cpu.iq.iqInstsAdded                      82743                       # Number of instructions added to the IQ (excludes non-spec)
system.cpu.iq.iqInstsIssued                    292637                       # Number of instructions issued
system.cpu.iq.iqSquashedInstsExamined           13635                       # Number of squashed instructions iterated over during squash; mainly for profiling
system.cpu.iq.iqSquashedInstsIssued                78                       # Number of squashed instructions issued
system.cpu.iq.iqSquashedOperandsExamined        16674                       # Number of squashed operands that are examined and possibly removed from graph
system.cpu.iq.issued_per_cycle::samples        154899                       # Number of insts issued each cycle
system.cpu.iq.issued_per_cycle::mean         1.889212                       # Number of insts issued each cycle
system.cpu.iq.issued_per_cycle::stdev        2.203670                       # Number of insts issued each cycle
system.cpu.iq.issued_per_cycle::underflows            0      0.00%      0.00% # Number of insts issued each cycle
system.cpu.iq.issued_per_cycle::0               80845     52.19%     52.19% # Number of insts issued each cycle
system.cpu.iq.issued_per_cycle::1                8007      5.17%     57.36% # Number of insts issued each cycle
system.cpu.iq.issued_per_cycle::2                3574      2.31%     59.67% # Number of insts issued each cycle
system.cpu.iq.issued_per_cycle::3                3918      2.53%     62.20% # Number of insts issued each cycle
system.cpu.iq.issued_per_cycle::4               35757     23.08%     85.28% # Number of insts issued each cycle
system.cpu.iq.issued_per_cycle::5               17701     11.43%     96.71% # Number of insts issued each cycle
system.cpu.iq.issued_per_cycle::6                2684      1.73%     98.44% # Number of insts issued each cycle
system.cpu.iq.issued_per_cycle::7                1213      0.78%     99.23% # Number of insts issued each cycle
system.cpu.iq.issued_per_cycle::8                1200      0.77%    100.00% # Number of insts issued each cycle
system.cpu.iq.issued_per_cycle::overflows            0      0.00%    100.00% # Number of insts issued each cycle
system.cpu.iq.issued_per_cycle::min_value            0                       # Number of insts issued each cycle
system.cpu.iq.issued_per_cycle::max_value            8                       # Number of insts issued each cycle
system.cpu.iq.issued_per_cycle::total          154899                       # Number of insts issued each cycle
system.cpu.iq.rate                           1.657108                       # Inst issue rate
system.cpu.iq.vec_alu_accesses                      0                       # Number of vector alu accesses
system.cpu.iq.vec_inst_queue_reads                  0                       # Number of vector instruction queue reads
system.cpu.iq.vec_inst_queue_wakeup_accesses            0                       # Number of vector instruction queue wakeup accesses
system.cpu.iq.vec_inst_queue_writes                 0                       # Number of vector instruction queue writes
system.cpu.memDep0.conflictingLoads                24                       # Number of conflicting loads.
system.cpu.memDep0.conflictingStores               15                       # Number of conflicting stores.
system.cpu.memDep0.insertedLoads                19800                       # Number of loads inserted to the mem dependence unit.
system.cpu.memDep0.insertedStores                2573                       # Number of stores inserted to the mem dependence unit.
system.cpu.misc_regfile_reads                  245241                       # number of misc regfile reads
system.cpu.numCycles                           176595                       # number of cpu cycles simulated
system.cpu.numWorkItemsCompleted                    0                       # number of work items this cpu completed
system.cpu.numWorkItemsStarted                      0                       # number of work items this cpu started
system.cpu.timesIdled                             307                       # Number of times that the entire CPU went into an idle state and unscheduled itself
system.cpu.workload.numSyscalls                    10                       # Number of system calls
system.l2bus.snoop_filter.hit_multi_requests            0                       # Number of requests hitting in the snoop filter with multiple (>1) holders of the requested data.
system.l2bus.snoop_filter.hit_multi_snoops            0                       # Number of snoops hitting in the snoop filter with multiple (>1) holders of the requested data.
system.l2bus.snoop_filter.hit_single_requests        16445                       # Number of requests hitting in the snoop filter with a single holder of the requested data.
system.l2bus.snoop_filter.hit_single_snoops          134                       # Number of snoops hitting in the snoop filter with a single holder of the requested data.
system.l2bus.snoop_filter.tot_requests          33573                       # Total number of requests made to the snoop filter.
system.l2bus.snoop_filter.tot_snoops              134                       # Total number of snoops made to the snoop filter.
system.membus.snoop_filter.hit_multi_requests            0                       # Number of requests hitting in the snoop filter with multiple (>1) holders of the requested data.
system.membus.snoop_filter.hit_multi_snoops            0                       # Number of snoops hitting in the snoop filter with multiple (>1) holders of the requested data.
system.membus.snoop_filter.hit_single_requests           74                       # Number of requests hitting in the snoop filter with a single holder of the requested data.
system.membus.snoop_filter.hit_single_snoops            0                       # Number of snoops hitting in the snoop filter with a single holder of the requested data.
system.membus.snoop_filter.tot_requests          1821                       # Total number of requests made to the snoop filter.
system.membus.snoop_filter.tot_snoops               0                       # Total number of snoops made to the snoop filter.
system.clk_domain.clock                          1000                       # Clock period in ticks
system.clk_domain.voltage_domain.voltage            1                       # Voltage in Volts
system.cpu.branchPred.lookups                    6496                       # Number of BP lookups
system.cpu.branchPred.condPredicted              5351                       # Number of conditional branches predicted
system.cpu.branchPred.condIncorrect               748                       # Number of conditional branches incorrect
system.cpu.branchPred.BTBLookups                 4165                       # Number of BTB lookups
system.cpu.branchPred.BTBHits                    3452                       # Number of BTB hits
system.cpu.branchPred.BTBHitPct             82.881152                       # BTB Hit Percentage
system.cpu.branchPred.RASUsed                     296                       # Number of times the RAS was used to get a target.
system.cpu.branchPred.RASIncorrect                  0                       # Number of incorrect RAS predictions.
system.cpu.branchPred.indirectLookups             263                       # Number of indirect predictor lookups.
system.cpu.branchPred.indirectHits                  5                       # Number of indirect target hits.
system.cpu.branchPred.indirectMisses              258                       # Number of indirect misses.
system.cpu.branchPred.indirectMispredicted           84                       # Number of mispredicted indirect branches.
system.cpu.commit.commitSquashedInsts           13533                       # The number of squashed insts skipped by commit
system.cpu.commit.branchMispredicts               549                       # The number of times a branch was mispredicted
system.cpu.commit.numCommittedDist::samples       152798                       # Number of insts commited each cycle
system.cpu.commit.numCommittedDist::mean     0.452192                       # Number of insts commited each cycle
system.cpu.commit.numCommittedDist::stdev     1.301100                       # Number of insts commited each cycle
system.cpu.commit.numCommittedDist::underflows            0      0.00%      0.00% # Number of insts commited each cycle
system.cpu.commit.numCommittedDist::0          123405     80.76%     80.76% # Number of insts commited each cycle
system.cpu.commit.numCommittedDist::1           14413      9.43%     90.20% # Number of insts commited each cycle
system.cpu.commit.numCommittedDist::2            7912      5.18%     95.37% # Number of insts commited each cycle
system.cpu.commit.numCommittedDist::3            1179      0.77%     96.15% # Number of insts commited each cycle
system.cpu.commit.numCommittedDist::4            2592      1.70%     97.84% # Number of insts commited each cycle
system.cpu.commit.numCommittedDist::5             286      0.19%     98.03% # Number of insts commited each cycle
system.cpu.commit.numCommittedDist::6             200      0.13%     98.16% # Number of insts commited each cycle
system.cpu.commit.numCommittedDist::7             166      0.11%     98.27% # Number of insts commited each cycle
system.cpu.commit.numCommittedDist::8            2645      1.73%    100.00% # Number of insts commited each cycle
system.cpu.commit.numCommittedDist::overflows            0      0.00%    100.00% # Number of insts commited each cycle
system.cpu.commit.numCommittedDist::min_value            0                       # Number of insts commited each cycle
system.cpu.commit.numCommittedDist::max_value            8                       # Number of insts commited each cycle
system.cpu.commit.numCommittedDist::total       152798                       # Number of insts commited each cycle
system.cpu.commit.instsCommitted                33790                       # Number of instructions committed
system.cpu.commit.opsCommitted                  69094                       # Number of ops (including micro ops) committed
system.cpu.commit.memRefs                       19676                       # Number of memory references committed
system.cpu.commit.loads                         18049                       # Number of loads committed
system.cpu.commit.amos                              0                       # Number of atomic instructions committed
system.cpu.commit.membars                           0                       # Number of memory barriers committed
system.cpu.commit.branches                       3962                       # Number of branches committed
system.cpu.commit.vector                            0                       # Number of committed Vector instructions.
system.cpu.commit.floating                       1267                       # Number of committed floating point instructions.
system.cpu.commit.integer                       68247                       # Number of committed integer instructions.
system.cpu.commit.functionCalls                   147                       # Number of function calls committed.
system.cpu.commit.committedInstType_0::No_OpClass          319      0.46%      0.46% # Class of committed instruction
system.cpu.commit.committedInstType_0::IntAlu        48509     70.21%     70.67% # Class of committed instruction
system.cpu.commit.committedInstType_0::IntMult            5      0.01%     70.68% # Class of committed instruction
system.cpu.commit.committedInstType_0::IntDiv           21      0.03%     70.71% # Class of committed instruction
system.cpu.commit.committedInstType_0::FloatAdd          135      0.20%     70.90% # Class of committed instruction
system.cpu.commit.committedInstType_0::FloatCmp            0      0.00%     70.90% # Class of committed instruction
system.cpu.commit.committedInstType_0::FloatCvt            0      0.00%     70.90% # Class of committed instruction
system.cpu.commit.committedInstType_0::FloatMult            0      0.00%     70.90% # Class of committed instruction
system.cpu.commit.committedInstType_0::FloatMultAcc            0      0.00%     70.90% # Class of committed instruction
system.cpu.commit.committedInstType_0::FloatDiv            0      0.00%     70.90% # Class of committed instruction
system.cpu.commit.committedInstType_0::FloatMisc            0      0.00%     70.90% # Class of committed instruction
system.cpu.commit.committedInstType_0::FloatSqrt            0      0.00%     70.90% # Class of committed instruction
system.cpu.commit.committedInstType_0::SimdAdd            0      0.00%     70.90% # Class of committed instruction
system.cpu.commit.committedInstType_0::SimdAddAcc            0      0.00%     70.90% # Class of committed instruction
system.cpu.commit.committedInstType_0::SimdAlu          100      0.14%     71.05% # Class of committed instruction
system.cpu.commit.committedInstType_0::SimdCmp           12      0.02%     71.06% # Class of committed instruction
system.cpu.commit.committedInstType_0::SimdCvt           74      0.11%     71.17% # Class of committed instruction
system.cpu.commit.committedInstType_0::SimdMisc          243      0.35%     71.52% # Class of committed instruction
system.cpu.commit.committedInstType_0::SimdMult            0      0.00%     71.52% # Class of committed instruction
system.cpu.commit.committedInstType_0::SimdMultAcc            0      0.00%     71.52% # Class of committed instruction
system.cpu.commit.committedInstType_0::SimdShift            0      0.00%     71.52% # Class of committed instruction
system.cpu.commit.committedInstType_0::SimdShiftAcc            0      0.00%     71.52% # Class of committed instruction
system.cpu.commit.committedInstType_0::SimdDiv            0      0.00%     71.52% # Class of committed instruction
system.cpu.commit.committedInstType_0::SimdSqrt            0      0.00%     71.52% # Class of committed instruction
system.cpu.commit.committedInstType_0::SimdFloatAdd            0      0.00%     71.52% # Class of committed instruction
system.cpu.commit.committedInstType_0::SimdFloatAlu            0      0.00%     71.52% # Class of committed instruction
system.cpu.commit.committedInstType_0::SimdFloatCmp            0      0.00%     71.52% # Class of committed instruction
system.cpu.commit.committedInstType_0::SimdFloatCvt            0      0.00%     71.52% # Class of committed instruction
system.cpu.commit.committedInstType_0::SimdFloatDiv            0      0.00%     71.52% # Class of committed instruction
system.cpu.commit.committedInstType_0::SimdFloatMisc            0      0.00%     71.52% # Class of committed instruction
system.cpu.commit.committedInstType_0::SimdFloatMult            0      0.00%     71.52% # Class of committed instruction
system.cpu.commit.committedInstType_0::SimdFloatMultAcc            0      0.00%     71.52% # Class of committed instruction
system.cpu.commit.committedInstType_0::SimdFloatSqrt            0      0.00%     71.52% # Class of committed instruction
system.cpu.commit.committedInstType_0::SimdReduceAdd            0      0.00%     71.52% # Class of committed instruction
system.cpu.commit.committedInstType_0::SimdReduceAlu            0      0.00%     71.52% # Class of committed instruction
system.cpu.commit.committedInstType_0::SimdReduceCmp            0      0.00%     71.52% # Class of committed instruction
system.cpu.commit.committedInstType_0::SimdFloatReduceAdd            0      0.00%     71.52% # Class of committed instruction
system.cpu.commit.committedInstType_0::SimdFloatReduceCmp            0      0.00%     71.52% # Class of committed instruction
system.cpu.commit.committedInstType_0::SimdAes            0      0.00%     71.52% # Class of committed instruction
system.cpu.commit.committedInstType_0::SimdAesMix            0      0.00%     71.52% # Class of committed instruction
system.cpu.commit.committedInstType_0::SimdSha1Hash            0      0.00%     71.52% # Class of committed instruction
system.cpu.commit.committedInstType_0::SimdSha1Hash2            0      0.00%     71.52% # Class of committed instruction
system.cpu.commit.committedInstType_0::SimdSha256Hash            0      0.00%     71.52% # Class of committed instruction
system.cpu.commit.committedInstType_0::SimdSha256Hash2            0      0.00%     71.52% # Class of committed instruction
system.cpu.commit.committedInstType_0::SimdShaSigma2            0      0.00%     71.52% # Class of committed instruction
system.cpu.commit.committedInstType_0::SimdShaSigma3            0      0.00%     71.52% # Class of committed instruction
system.cpu.commit.committedInstType_0::SimdPredAlu            0      0.00%     71.52% # Class of committed instruction
system.cpu.commit.committedInstType_0::MemRead        17971     26.01%     97.53% # Class of committed instruction
system.cpu.commit.committedInstType_0::MemWrite         1161      1.68%     99.21% # Class of committed instruction
system.cpu.commit.committedInstType_0::FloatMemRead           78      0.11%     99.33% # Class of committed instruction
system.cpu.commit.committedInstType_0::FloatMemWrite          466      0.67%    100.00% # Class of committed instruction
system.cpu.commit.committedInstType_0::IprAccess            0      0.00%    100.00% # Class of committed instruction
system.cpu.commit.committedInstType_0::InstPrefetch            0      0.00%    100.00% # Class of committed instruction
system.cpu.commit.committedInstType_0::total        69094                       # Class of committed instruction
system.cpu.commit.commitEligibleSamples          2645                       # number cycles where commit BW limit reached
system.cpu.dcache.demand_hits::.cpu.data         3805                       # number of demand (read+write) hits
system.cpu.dcache.demand_hits::total             3805                       # number of demand (read+write) hits
system.cpu.dcache.overall_hits::.cpu.data         3805                       # number of overall hits
system.cpu.dcache.overall_hits::total            3805                       # number of overall hits
system.cpu.dcache.demand_misses::.cpu.data        16851                       # number of demand (read+write) misses
system.cpu.dcache.demand_misses::total          16851                       # number of demand (read+write) misses
system.cpu.dcache.overall_misses::.cpu.data        16851                       # number of overall misses
system.cpu.dcache.overall_misses::total         16851                       # number of overall misses
system.cpu.dcache.demand_miss_latency::.cpu.data    552518999                       # number of demand (read+write) miss cycles
system.cpu.dcache.demand_miss_latency::total    552518999                       # number of demand (read+write) miss cycles
system.cpu.dcache.overall_miss_latency::.cpu.data    552518999                       # number of overall miss cycles
system.cpu.dcache.overall_miss_latency::total    552518999                       # number of overall miss cycles
system.cpu.dcache.demand_accesses::.cpu.data        20656                       # number of demand (read+write) accesses
system.cpu.dcache.demand_accesses::total        20656                       # number of demand (read+write) accesses
system.cpu.dcache.overall_accesses::.cpu.data        20656                       # number of overall (read+write) accesses
system.cpu.dcache.overall_accesses::total        20656                       # number of overall (read+write) accesses
system.cpu.dcache.demand_miss_rate::.cpu.data     0.815792                       # miss rate for demand accesses
system.cpu.dcache.demand_miss_rate::total     0.815792                       # miss rate for demand accesses
system.cpu.dcache.overall_miss_rate::.cpu.data     0.815792                       # miss rate for overall accesses
system.cpu.dcache.overall_miss_rate::total     0.815792                       # miss rate for overall accesses
system.cpu.dcache.demand_avg_miss_latency::.cpu.data 32788.499140                       # average overall miss latency
system.cpu.dcache.demand_avg_miss_latency::total 32788.499140                       # average overall miss latency
system.cpu.dcache.overall_avg_miss_latency::.cpu.data 32788.499140                       # average overall miss latency
system.cpu.dcache.overall_avg_miss_latency::total 32788.499140                       # average overall miss latency
system.cpu.dcache.blocked_cycles::no_mshrs       102238                       # number of cycles access was blocked
system.cpu.dcache.blocked_cycles::no_targets            0                       # number of cycles access was blocked
system.cpu.dcache.blocked::no_mshrs             16408                       # number of cycles access was blocked
system.cpu.dcache.blocked::no_targets               0                       # number of cycles access was blocked
system.cpu.dcache.avg_blocked_cycles::no_mshrs     6.230985                       # average number of cycles each access was blocked
system.cpu.dcache.avg_blocked_cycles::no_targets          nan                       # average number of cycles each access was blocked
system.cpu.dcache.writebacks::.writebacks           34                       # number of writebacks
system.cpu.dcache.writebacks::total                34                       # number of writebacks
system.cpu.dcache.demand_mshr_hits::.cpu.data          214                       # number of demand (read+write) MSHR hits
system.cpu.dcache.demand_mshr_hits::total          214                       # number of demand (read+write) MSHR hits
system.cpu.dcache.overall_mshr_hits::.cpu.data          214                       # number of overall MSHR hits
system.cpu.dcache.overall_mshr_hits::total          214                       # number of overall MSHR hits
system.cpu.dcache.demand_mshr_misses::.cpu.data        16637                       # number of demand (read+write) MSHR misses
system.cpu.dcache.demand_mshr_misses::total        16637                       # number of demand (read+write) MSHR misses
system.cpu.dcache.overall_mshr_misses::.cpu.data        16637                       # number of overall MSHR misses
system.cpu.dcache.overall_mshr_misses::total        16637                       # number of overall MSHR misses
system.cpu.dcache.demand_mshr_miss_latency::.cpu.data    502847999                       # number of demand (read+write) MSHR miss cycles
system.cpu.dcache.demand_mshr_miss_latency::total    502847999                       # number of demand (read+write) MSHR miss cycles
system.cpu.dcache.overall_mshr_miss_latency::.cpu.data    502847999                       # number of overall MSHR miss cycles
system.cpu.dcache.overall_mshr_miss_latency::total    502847999                       # number of overall MSHR miss cycles
system.cpu.dcache.demand_mshr_miss_rate::.cpu.data     0.805432                       # mshr miss rate for demand accesses
system.cpu.dcache.demand_mshr_miss_rate::total     0.805432                       # mshr miss rate for demand accesses
system.cpu.dcache.overall_mshr_miss_rate::.cpu.data     0.805432                       # mshr miss rate for overall accesses
system.cpu.dcache.overall_mshr_miss_rate::total     0.805432                       # mshr miss rate for overall accesses
system.cpu.dcache.demand_avg_mshr_miss_latency::.cpu.data 30224.679870                       # average overall mshr miss latency
system.cpu.dcache.demand_avg_mshr_miss_latency::total 30224.679870                       # average overall mshr miss latency
system.cpu.dcache.overall_avg_mshr_miss_latency::.cpu.data 30224.679870                       # average overall mshr miss latency
system.cpu.dcache.overall_avg_mshr_miss_latency::total 30224.679870                       # average overall mshr miss latency
system.cpu.dcache.replacements                  16192                       # number of replacements
system.cpu.dcache.ReadReq_hits::.cpu.data         2298                       # number of ReadReq hits
system.cpu.dcache.ReadReq_hits::total            2298                       # number of ReadReq hits
system.cpu.dcache.ReadReq_misses::.cpu.data        16730                       # number of ReadReq misses
system.cpu.dcache.ReadReq_misses::total         16730                       # number of ReadReq misses
system.cpu.dcache.ReadReq_miss_latency::.cpu.data    540093000                       # number of ReadReq miss cycles
system.cpu.dcache.ReadReq_miss_latency::total    540093000                       # number of ReadReq miss cycles
system.cpu.dcache.ReadReq_accesses::.cpu.data        19028                       # number of ReadReq accesses(hits+misses)
system.cpu.dcache.ReadReq_accesses::total        19028                       # number of ReadReq accesses(hits+misses)
system.cpu.dcache.ReadReq_miss_rate::.cpu.data     0.879231                       # miss rate for ReadReq accesses
system.cpu.dcache.ReadReq_miss_rate::total     0.879231                       # miss rate for ReadReq accesses
system.cpu.dcache.ReadReq_avg_miss_latency::.cpu.data 32282.904961                       # average ReadReq miss latency
system.cpu.dcache.ReadReq_avg_miss_latency::total 32282.904961                       # average ReadReq miss latency
system.cpu.dcache.ReadReq_mshr_hits::.cpu.data          212                       # number of ReadReq MSHR hits
system.cpu.dcache.ReadReq_mshr_hits::total          212                       # number of ReadReq MSHR hits
system.cpu.dcache.ReadReq_mshr_misses::.cpu.data        16518                       # number of ReadReq MSHR misses
system.cpu.dcache.ReadReq_mshr_misses::total        16518                       # number of ReadReq MSHR misses
system.cpu.dcache.ReadReq_mshr_miss_latency::.cpu.data    490679000                       # number of ReadReq MSHR miss cycles
system.cpu.dcache.ReadReq_mshr_miss_latency::total    490679000                       # number of ReadReq MSHR miss cycles
system.cpu.dcache.ReadReq_mshr_miss_rate::.cpu.data     0.868089                       # mshr miss rate for ReadReq accesses
system.cpu.dcache.ReadReq_mshr_miss_rate::total     0.868089                       # mshr miss rate for ReadReq accesses
system.cpu.dcache.ReadReq_avg_mshr_miss_latency::.cpu.data 29705.714978                       # average ReadReq mshr miss latency
system.cpu.dcache.ReadReq_avg_mshr_miss_latency::total 29705.714978                       # average ReadReq mshr miss latency
system.cpu.dcache.WriteReq_hits::.cpu.data         1507                       # number of WriteReq hits
system.cpu.dcache.WriteReq_hits::total           1507                       # number of WriteReq hits
system.cpu.dcache.WriteReq_misses::.cpu.data          121                       # number of WriteReq misses
system.cpu.dcache.WriteReq_misses::total          121                       # number of WriteReq misses
system.cpu.dcache.WriteReq_miss_latency::.cpu.data     12425999                       # number of WriteReq miss cycles
system.cpu.dcache.WriteReq_miss_latency::total     12425999                       # number of WriteReq miss cycles
system.cpu.dcache.WriteReq_accesses::.cpu.data         1628                       # number of WriteReq accesses(hits+misses)
system.cpu.dcache.WriteReq_accesses::total         1628                       # number of WriteReq accesses(hits+misses)
system.cpu.dcache.WriteReq_miss_rate::.cpu.data     0.074324                       # miss rate for WriteReq accesses
system.cpu.dcache.WriteReq_miss_rate::total     0.074324                       # miss rate for WriteReq accesses
system.cpu.dcache.WriteReq_avg_miss_latency::.cpu.data 102694.206612                       # average WriteReq miss latency
system.cpu.dcache.WriteReq_avg_miss_latency::total 102694.206612                       # average WriteReq miss latency
system.cpu.dcache.WriteReq_mshr_hits::.cpu.data            2                       # number of WriteReq MSHR hits
system.cpu.dcache.WriteReq_mshr_hits::total            2                       # number of WriteReq MSHR hits
system.cpu.dcache.WriteReq_mshr_misses::.cpu.data          119                       # number of WriteReq MSHR misses
system.cpu.dcache.WriteReq_mshr_misses::total          119                       # number of WriteReq MSHR misses
system.cpu.dcache.WriteReq_mshr_miss_latency::.cpu.data     12168999                       # number of WriteReq MSHR miss cycles
system.cpu.dcache.WriteReq_mshr_miss_latency::total     12168999                       # number of WriteReq MSHR miss cycles
system.cpu.dcache.WriteReq_mshr_miss_rate::.cpu.data     0.073096                       # mshr miss rate for WriteReq accesses
system.cpu.dcache.WriteReq_mshr_miss_rate::total     0.073096                       # mshr miss rate for WriteReq accesses
system.cpu.dcache.WriteReq_avg_mshr_miss_latency::.cpu.data 102260.495798                       # average WriteReq mshr miss latency
system.cpu.dcache.WriteReq_avg_mshr_miss_latency::total 102260.495798                       # average WriteReq mshr miss latency
system.cpu.dcache.power_state.pwrStateResidencyTicks::UNDEFINED    176594000                       # Cumulative time (in ticks) in various power states
system.cpu.dcache.tags.tagsinuse           316.078984                       # Cycle average of tags in use
system.cpu.dcache.tags.total_refs               20442                       # Total number of references to valid blocks.
system.cpu.dcache.tags.sampled_refs             16637                       # Sample count of references to valid blocks.
system.cpu.dcache.tags.avg_refs              1.228707                       # Average number of references to valid blocks.
system.cpu.dcache.tags.warmup_cycle            222000                       # Cycle when the warmup percentage was hit.
system.cpu.dcache.tags.occ_blocks::.cpu.data   316.078984                       # Average occupied blocks per requestor
system.cpu.dcache.tags.occ_percent::.cpu.data     0.308671                       # Average percentage of cache occupancy
system.cpu.dcache.tags.occ_percent::total     0.308671                       # Average percentage of cache occupancy
system.cpu.dcache.tags.occ_task_id_blocks::1024          445                       # Occupied blocks per task id
system.cpu.dcache.tags.age_task_id_blocks_1024::0          143                       # Occupied blocks per task id
system.cpu.dcache.tags.age_task_id_blocks_1024::1          125                       # Occupied blocks per task id
system.cpu.dcache.tags.age_task_id_blocks_1024::2          177                       # Occupied blocks per task id
system.cpu.dcache.tags.occ_task_id_percent::1024     0.434570                       # Percentage of cache occupancy per task id
system.cpu.dcache.tags.tag_accesses             57949                       # Number of tag accesses
system.cpu.dcache.tags.data_accesses            57949                       # Number of data accesses
system.cpu.dcache.tags.power_state.pwrStateResidencyTicks::UNDEFINED    176594000                       # Cumulative time (in ticks) in various power states
system.cpu.decode.idleCycles                    18111                       # Number of cycles decode is idle
system.cpu.decode.blockedCycles                124196                       # Number of cycles decode is blocked
system.cpu.decode.runCycles                      5479                       # Number of cycles decode is running
system.cpu.decode.unblockCycles                  6537                       # Number of cycles decode is unblocking
system.cpu.decode.squashCycles                    576                       # Number of cycles decode is squashing
system.cpu.decode.branchResolved                 3521                       # Number of times decode resolved a  branch
system.cpu.decode.branchMispred                   233                       # Number of times decode detected a branch misprediction
system.cpu.decode.decodedInsts                  86792                       # Number of instructions handled by decode
system.cpu.decode.squashedInsts                  1107                       # Number of squashed instructions handled by decode
system.cpu.dtb.rdAccesses                       19323                       # TLB accesses on read requests
system.cpu.dtb.wrAccesses                        2118                       # TLB accesses on write requests
system.cpu.dtb.rdMisses                          2185                       # TLB misses on read requests
system.cpu.dtb.wrMisses                            24                       # TLB misses on write requests
system.cpu.dtb.walker.power_state.pwrStateResidencyTicks::UNDEFINED    176594000                       # Cumulative time (in ticks) in various power states
system.cpu.fetch.icacheStallCycles              20858                       # Number of cycles fetch is stalled on an Icache miss
system.cpu.fetch.insts                          45822                       # Number of instructions fetch has processed
system.cpu.fetch.branches                        6496                       # Number of branches that fetch encountered
system.cpu.fetch.predictedBranches               3753                       # Number of branches that fetch has predicted taken
system.cpu.fetch.cycles                        133023                       # Number of cycles fetch has run and was not squashing or blocked
system.cpu.fetch.squashCycles                    1596                       # Number of cycles fetch has spent squashing
system.cpu.fetch.miscStallCycles                   33                       # Number of cycles fetch has spent waiting on interrupts,or bad addresses, or out of MSHRs
system.cpu.fetch.pendingTrapStallCycles           172                       # Number of stall cycles due to pending traps
system.cpu.fetch.pendingQuiesceStallCycles            4                       # Number of stall cycles due to pending quiesce instructions
system.cpu.fetch.icacheWaitRetryStallCycles           11                       # Number of stall cycles due to full MSHR
system.cpu.fetch.cacheLines                      7447                       # Number of cache lines fetched
system.cpu.fetch.icacheSquashes                   372                       # Number of outstanding Icache misses that were squashed
system.cpu.fetch.nisnDist::samples             154899                       # Number of instructions fetched each cycle (Total)
system.cpu.fetch.nisnDist::mean              0.595788                       # Number of instructions fetched each cycle (Total)
system.cpu.fetch.nisnDist::stdev             1.918805                       # Number of instructions fetched each cycle (Total)
system.cpu.fetch.nisnDist::underflows               0      0.00%      0.00% # Number of instructions fetched each cycle (Total)
system.cpu.fetch.nisnDist::0                   138475     89.40%     89.40% # Number of instructions fetched each cycle (Total)
system.cpu.fetch.nisnDist::1                     1383      0.89%     90.29% # Number of instructions fetched each cycle (Total)
system.cpu.fetch.nisnDist::2                     1198      0.77%     91.06% # Number of instructions fetched each cycle (Total)
system.cpu.fetch.nisnDist::3                     2188      1.41%     92.48% # Number of instructions fetched each cycle (Total)
system.cpu.fetch.nisnDist::4                     1150      0.74%     93.22% # Number of instructions fetched each cycle (Total)
system.cpu.fetch.nisnDist::5                     1050      0.68%     93.90% # Number of instructions fetched each cycle (Total)
system.cpu.fetch.nisnDist::6                     1421      0.92%     94.81% # Number of instructions fetched each cycle (Total)
system.cpu.fetch.nisnDist::7                      704      0.45%     95.27% # Number of instructions fetched each cycle (Total)
system.cpu.fetch.nisnDist::8                     7330      4.73%    100.00% # Number of instructions fetched each cycle (Total)
system.cpu.fetch.nisnDist::overflows                0      0.00%    100.00% # Number of instructions fetched each cycle (Total)
system.cpu.fetch.nisnDist::min_value                0                       # Number of instructions fetched each cycle (Total)
system.cpu.fetch.nisnDist::max_value                8                       # Number of instructions fetched each cycle (Total)
system.cpu.fetch.nisnDist::total               154899                       # Number of instructions fetched each cycle (Total)
system.cpu.fetch.branchRate                  0.036785                       # Number of branch fetches per cycle
system.cpu.fetch.rate                        0.259475                       # Number of inst fetches per cycle
system.cpu.icache.demand_hits::.cpu.inst         6808                       # number of demand (read+write) hits
system.cpu.icache.demand_hits::total             6808                       # number of demand (read+write) hits
system.cpu.icache.overall_hits::.cpu.inst         6808                       # number of overall hits
system.cpu.icache.overall_hits::total            6808                       # number of overall hits
system.cpu.icache.demand_misses::.cpu.inst          639                       # number of demand (read+write) misses
system.cpu.icache.demand_misses::total            639                       # number of demand (read+write) misses
system.cpu.icache.overall_misses::.cpu.inst          639                       # number of overall misses
system.cpu.icache.overall_misses::total           639                       # number of overall misses
system.cpu.icache.demand_miss_latency::.cpu.inst     60459000                       # number of demand (read+write) miss cycles
system.cpu.icache.demand_miss_latency::total     60459000                       # number of demand (read+write) miss cycles
system.cpu.icache.overall_miss_latency::.cpu.inst     60459000                       # number of overall miss cycles
system.cpu.icache.overall_miss_latency::total     60459000                       # number of overall miss cycles
system.cpu.icache.demand_accesses::.cpu.inst         7447                       # number of demand (read+write) accesses
system.cpu.icache.demand_accesses::total         7447                       # number of demand (read+write) accesses
system.cpu.icache.overall_accesses::.cpu.inst         7447                       # number of overall (read+write) accesses
system.cpu.icache.overall_accesses::total         7447                       # number of overall (read+write) accesses
system.cpu.icache.demand_miss_rate::.cpu.inst     0.085806                       # miss rate for demand accesses
system.cpu.icache.demand_miss_rate::total     0.085806                       # miss rate for demand accesses
system.cpu.icache.overall_miss_rate::.cpu.inst     0.085806                       # miss rate for overall accesses
system.cpu.icache.overall_miss_rate::total     0.085806                       # miss rate for overall accesses
system.cpu.icache.demand_avg_miss_latency::.cpu.inst 94615.023474                       # average overall miss latency
system.cpu.icache.demand_avg_miss_latency::total 94615.023474                       # average overall miss latency
system.cpu.icache.overall_avg_miss_latency::.cpu.inst 94615.023474                       # average overall miss latency
system.cpu.icache.overall_avg_miss_latency::total 94615.023474                       # average overall miss latency
system.cpu.icache.blocked_cycles::no_mshrs          190                       # number of cycles access was blocked
system.cpu.icache.blocked_cycles::no_targets            0                       # number of cycles access was blocked
system.cpu.icache.blocked::no_mshrs                 3                       # number of cycles access was blocked
system.cpu.icache.blocked::no_targets               0                       # number of cycles access was blocked
system.cpu.icache.avg_blocked_cycles::no_mshrs    63.333333                       # average number of cycles each access was blocked
system.cpu.icache.avg_blocked_cycles::no_targets          nan                       # average number of cycles each access was blocked
system.cpu.icache.demand_mshr_hits::.cpu.inst          148                       # number of demand (read+write) MSHR hits
system.cpu.icache.demand_mshr_hits::total          148                       # number of demand (read+write) MSHR hits
system.cpu.icache.overall_mshr_hits::.cpu.inst          148                       # number of overall MSHR hits
system.cpu.icache.overall_mshr_hits::total          148                       # number of overall MSHR hits
system.cpu.icache.demand_mshr_misses::.cpu.inst          491                       # number of demand (read+write) MSHR misses
system.cpu.icache.demand_mshr_misses::total          491                       # number of demand (read+write) MSHR misses
system.cpu.icache.overall_mshr_misses::.cpu.inst          491                       # number of overall MSHR misses
system.cpu.icache.overall_mshr_misses::total          491                       # number of overall MSHR misses
system.cpu.icache.demand_mshr_miss_latency::.cpu.inst     49256000                       # number of demand (read+write) MSHR miss cycles
system.cpu.icache.demand_mshr_miss_latency::total     49256000                       # number of demand (read+write) MSHR miss cycles
system.cpu.icache.overall_mshr_miss_latency::.cpu.inst     49256000                       # number of overall MSHR miss cycles
system.cpu.icache.overall_mshr_miss_latency::total     49256000                       # number of overall MSHR miss cycles
system.cpu.icache.demand_mshr_miss_rate::.cpu.inst     0.065933                       # mshr miss rate for demand accesses
system.cpu.icache.demand_mshr_miss_rate::total     0.065933                       # mshr miss rate for demand accesses
system.cpu.icache.overall_mshr_miss_rate::.cpu.inst     0.065933                       # mshr miss rate for overall accesses
system.cpu.icache.overall_mshr_miss_rate::total     0.065933                       # mshr miss rate for overall accesses
system.cpu.icache.demand_avg_mshr_miss_latency::.cpu.inst 100317.718941                       # average overall mshr miss latency
system.cpu.icache.demand_avg_mshr_miss_latency::total 100317.718941                       # average overall mshr miss latency
system.cpu.icache.overall_avg_mshr_miss_latency::.cpu.inst 100317.718941                       # average overall mshr miss latency
system.cpu.icache.overall_avg_mshr_miss_latency::total 100317.718941                       # average overall mshr miss latency
system.cpu.icache.replacements                    253                       # number of replacements
system.cpu.icache.ReadReq_hits::.cpu.inst         6808                       # number of ReadReq hits
system.cpu.icache.ReadReq_hits::total            6808                       # number of ReadReq hits
system.cpu.icache.ReadReq_misses::.cpu.inst          639                       # number of ReadReq misses
system.cpu.icache.ReadReq_misses::total           639                       # number of ReadReq misses
system.cpu.icache.ReadReq_miss_latency::.cpu.inst     60459000                       # number of ReadReq miss cycles
system.cpu.icache.ReadReq_miss_latency::total     60459000                       # number of ReadReq miss cycles
system.cpu.icache.ReadReq_accesses::.cpu.inst         7447                       # number of ReadReq accesses(hits+misses)
system.cpu.icache.ReadReq_accesses::total         7447                       # number of ReadReq accesses(hits+misses)
system.cpu.icache.ReadReq_miss_rate::.cpu.inst     0.085806                       # miss rate for ReadReq accesses
system.cpu.icache.ReadReq_miss_rate::total     0.085806                       # miss rate for ReadReq accesses
system.cpu.icache.ReadReq_avg_miss_latency::.cpu.inst 94615.023474                       # average ReadReq miss latency
system.cpu.icache.ReadReq_avg_miss_latency::total 94615.023474                       # average ReadReq miss latency
system.cpu.icache.ReadReq_mshr_hits::.cpu.inst          148                       # number of ReadReq MSHR hits
system.cpu.icache.ReadReq_mshr_hits::total          148                       # number of ReadReq MSHR hits
system.cpu.icache.ReadReq_mshr_misses::.cpu.inst          491                       # number of ReadReq MSHR misses
system.cpu.icache.ReadReq_mshr_misses::total          491                       # number of ReadReq MSHR misses
system.cpu.icache.ReadReq_mshr_miss_latency::.cpu.inst     49256000                       # number of ReadReq MSHR miss cycles
system.cpu.icache.ReadReq_mshr_miss_latency::total     49256000                       # number of ReadReq MSHR miss cycles
system.cpu.icache.ReadReq_mshr_miss_rate::.cpu.inst     0.065933                       # mshr miss rate for ReadReq accesses
system.cpu.icache.ReadReq_mshr_miss_rate::total     0.065933                       # mshr miss rate for ReadReq accesses
system.cpu.icache.ReadReq_avg_mshr_miss_latency::.cpu.inst 100317.718941                       # average ReadReq mshr miss latency
system.cpu.icache.ReadReq_avg_mshr_miss_latency::total 100317.718941                       # average ReadReq mshr miss latency
system.cpu.icache.power_state.pwrStateResidencyTicks::UNDEFINED    176594000                       # Cumulative time (in ticks) in various power states
system.cpu.icache.tags.tagsinuse           212.567216                       # Cycle average of tags in use
system.cpu.icache.tags.total_refs                7299                       # Total number of references to valid blocks.
system.cpu.icache.tags.sampled_refs               491                       # Sample count of references to valid blocks.
system.cpu.icache.tags.avg_refs             14.865580                       # Average number of references to valid blocks.
system.cpu.icache.tags.warmup_cycle            107000                       # Cycle when the warmup percentage was hit.
system.cpu.icache.tags.occ_blocks::.cpu.inst   212.567216                       # Average occupied blocks per requestor
system.cpu.icache.tags.occ_percent::.cpu.inst     0.830341                       # Average percentage of cache occupancy
system.cpu.icache.tags.occ_percent::total     0.830341                       # Average percentage of cache occupancy
system.cpu.icache.tags.occ_task_id_blocks::1024          238                       # Occupied blocks per task id
system.cpu.icache.tags.age_task_id_blocks_1024::0           39                       # Occupied blocks per task id
system.cpu.icache.tags.age_task_id_blocks_1024::2          199                       # Occupied blocks per task id
system.cpu.icache.tags.occ_task_id_percent::1024     0.929688                       # Percentage of cache occupancy per task id
system.cpu.icache.tags.tag_accesses             15385                       # Number of tag accesses
system.cpu.icache.tags.data_accesses            15385                       # Number of data accesses
system.cpu.icache.tags.power_state.pwrStateResidencyTicks::UNDEFINED    176594000                       # Cumulative time (in ticks) in various power states
system.cpu.interrupts.clk_domain.clock          16000                       # Clock period in ticks
system.cpu.itb.rdAccesses                           0                       # TLB accesses on read requests
system.cpu.itb.wrAccesses                        7481                       # TLB accesses on write requests
system.cpu.itb.rdMisses                             0                       # TLB misses on read requests
system.cpu.itb.wrMisses                            75                       # TLB misses on write requests
system.cpu.itb.walker.power_state.pwrStateResidencyTicks::UNDEFINED    176594000                       # Cumulative time (in ticks) in various power states
system.cpu.lsq0.forwLoads                         182                       # Number of loads that had data forwarded from stores
system.cpu.lsq0.squashedLoads                    1751                       # Number of loads squashed
system.cpu.lsq0.ignoredResponses                    4                       # Number of memory responses ignored because the instruction is squashed
system.cpu.lsq0.memOrderViolation                  16                       # Number of memory ordering violations
system.cpu.lsq0.squashedStores                    946                       # Number of stores squashed
system.cpu.lsq0.rescheduledLoads                    0                       # Number of loads that were rescheduled
system.cpu.lsq0.blockedByCache                  16405                       # Number of times an access to memory failed due to the cache being blocked
system.cpu.power_state.pwrStateResidencyTicks::ON    176594000                       # Cumulative time (in ticks) in various power states
system.cpu.rename.squashCycles                    576                       # Number of cycles rename is squashing
system.cpu.rename.idleCycles                    20489                       # Number of cycles rename is idle
system.cpu.rename.blockCycles                   18427                       # Number of cycles rename is blocking
system.cpu.rename.serializeStallCycles            459                       # count of cycles rename stalledfor serializing inst
system.cpu.rename.runCycles                      9403                       # Number of cycles rename is running
system.cpu.rename.unblockCycles                105545                       # Number of cycles rename is unblocking
system.cpu.rename.renamedInsts                  85245                       # Number of instructions processed by rename
system.cpu.rename.ROBFullEvents                    43                       # Number of times rename has blocked due to ROB full
system.cpu.rename.IQFullEvents                  38820                       # Number of times rename has blocked due to IQ full
system.cpu.rename.LQFullEvents                  98078                       # Number of times rename has blocked due to LQ full
system.cpu.rename.SQFullEvents                   4415                       # Number of times rename has blocked due to SQ full
system.cpu.rename.renamedOperands              132000                       # Number of destination operands rename has renamed
system.cpu.rename.lookups                      195632                       # Number of register rename lookups that rename has made
system.cpu.rename.intLookups                   130411                       # Number of integer rename lookups
system.cpu.rename.fpLookups                      1851                       # Number of floating rename lookups
system.cpu.rename.committedMaps                114357                       # Number of HB maps that are committed
system.cpu.rename.undoneMaps                    17629                       # Number of HB maps that are undone due to squashing
system.cpu.rename.serializing                      13                       # count of serializing insts renamed
system.cpu.rename.tempSerializing                  15                       # count of temporary serializing insts renamed
system.cpu.rename.skidInsts                     37103                       # count of insts added to the skid buffer
system.cpu.rob.reads                           232624                       # The number of ROB reads
system.cpu.rob.writes                          167385                       # The number of ROB writes
system.cpu.thread_0.numInsts                    33790                       # Number of Instructions committed
system.cpu.thread_0.numOps                      69094                       # Number of Ops committed
system.cpu.thread_0.numMemRefs                      0                       # Number of Memory References
system.l2bus.trans_dist::ReadResp               17009                       # Transaction distribution
system.l2bus.trans_dist::WritebackDirty            34                       # Transaction distribution
system.l2bus.trans_dist::CleanEvict             16545                       # Transaction distribution
system.l2bus.trans_dist::ReadExReq                119                       # Transaction distribution
system.l2bus.trans_dist::ReadExResp               119                       # Transaction distribution
system.l2bus.trans_dist::ReadSharedReq          17009                       # Transaction distribution
system.l2bus.pkt_count_system.cpu.icache.mem_side_port::system.l2cache.cpu_side_port         1235                       # Packet count per connected requestor and responder (bytes)
system.l2bus.pkt_count_system.cpu.dcache.mem_side_port::system.l2cache.cpu_side_port        49466                       # Packet count per connected requestor and responder (bytes)
system.l2bus.pkt_count::total                   50701                       # Packet count per connected requestor and responder (bytes)
system.l2bus.pkt_size_system.cpu.icache.mem_side_port::system.l2cache.cpu_side_port        31424                       # Cumulative packet size per connected requestor and responder (bytes)
system.l2bus.pkt_size_system.cpu.dcache.mem_side_port::system.l2cache.cpu_side_port      1066944                       # Cumulative packet size per connected requestor and responder (bytes)
system.l2bus.pkt_size::total                  1098368                       # Cumulative packet size per connected requestor and responder (bytes)
system.l2bus.snoops                               134                       # Total snoops (count)
system.l2bus.snoopTraffic                           0                       # Total snoop traffic (bytes)
system.l2bus.snoop_fanout::samples              17262                       # Request fanout histogram
system.l2bus.snoop_fanout::mean              0.007763                       # Request fanout histogram
system.l2bus.snoop_fanout::stdev             0.087766                       # Request fanout histogram
system.l2bus.snoop_fanout::underflows               0      0.00%      0.00% # Request fanout histogram
system.l2bus.snoop_fanout::0                    17128     99.22%     99.22% # Request fanout histogram
system.l2bus.snoop_fanout::1                      134      0.78%    100.00% # Request fanout histogram
system.l2bus.snoop_fanout::2                        0      0.00%    100.00% # Request fanout histogram
system.l2bus.snoop_fanout::overflows                0      0.00%    100.00% # Request fanout histogram
system.l2bus.snoop_fanout::min_value                0                       # Request fanout histogram
system.l2bus.snoop_fanout::max_value                1                       # Request fanout histogram
system.l2bus.snoop_fanout::total                17262                       # Request fanout histogram
system.l2bus.power_state.pwrStateResidencyTicks::UNDEFINED    176594000                       # Cumulative time (in ticks) in various power states
system.l2bus.reqLayer0.occupancy             33641000                       # Layer occupancy (ticks)
system.l2bus.reqLayer0.utilization               19.0                       # Layer utilization (%)
system.l2bus.respLayer0.occupancy             1473000                       # Layer occupancy (ticks)
system.l2bus.respLayer0.utilization               0.8                       # Layer utilization (%)
system.l2bus.respLayer1.occupancy            49911000                       # Layer occupancy (ticks)
system.l2bus.respLayer1.utilization              28.3                       # Layer utilization (%)
system.l2cache.demand_hits::.cpu.inst              23                       # number of demand (read+write) hits
system.l2cache.demand_hits::.cpu.data           15358                       # number of demand (read+write) hits
system.l2cache.demand_hits::total               15381                       # number of demand (read+write) hits
system.l2cache.overall_hits::.cpu.inst             23                       # number of overall hits
system.l2cache.overall_hits::.cpu.data          15358                       # number of overall hits
system.l2cache.overall_hits::total              15381                       # number of overall hits
system.l2cache.demand_misses::.cpu.inst           468                       # number of demand (read+write) misses
system.l2cache.demand_misses::.cpu.data          1279                       # number of demand (read+write) misses
system.l2cache.demand_misses::total              1747                       # number of demand (read+write) misses
system.l2cache.overall_misses::.cpu.inst          468                       # number of overall misses
system.l2cache.overall_misses::.cpu.data         1279                       # number of overall misses
system.l2cache.overall_misses::total             1747                       # number of overall misses
system.l2cache.demand_miss_latency::.cpu.inst     47298000                       # number of demand (read+write) miss cycles
system.l2cache.demand_miss_latency::.cpu.data    121582000                       # number of demand (read+write) miss cycles
system.l2cache.demand_miss_latency::total    168880000                       # number of demand (read+write) miss cycles
system.l2cache.overall_miss_latency::.cpu.inst     47298000                       # number of overall miss cycles
system.l2cache.overall_miss_latency::.cpu.data    121582000                       # number of overall miss cycles
system.l2cache.overall_miss_latency::total    168880000                       # number of overall miss cycles
system.l2cache.demand_accesses::.cpu.inst          491                       # number of demand (read+write) accesses
system.l2cache.demand_accesses::.cpu.data        16637                       # number of demand (read+write) accesses
system.l2cache.demand_accesses::total           17128                       # number of demand (read+write) accesses
system.l2cache.overall_accesses::.cpu.inst          491                       # number of overall (read+write) accesses
system.l2cache.overall_accesses::.cpu.data        16637                       # number of overall (read+write) accesses
system.l2cache.overall_accesses::total          17128                       # number of overall (read+write) accesses
system.l2cache.demand_miss_rate::.cpu.inst     0.953157                       # miss rate for demand accesses
system.l2cache.demand_miss_rate::.cpu.data     0.076877                       # miss rate for demand accesses
system.l2cache.demand_miss_rate::total       0.101997                       # miss rate for demand accesses
system.l2cache.overall_miss_rate::.cpu.inst     0.953157                       # miss rate for overall accesses
system.l2cache.overall_miss_rate::.cpu.data     0.076877                       # miss rate for overall accesses
system.l2cache.overall_miss_rate::total      0.101997                       # miss rate for overall accesses
system.l2cache.demand_avg_miss_latency::.cpu.inst 101064.102564                       # average overall miss latency
system.l2cache.demand_avg_miss_latency::.cpu.data 95060.203284                       # average overall miss latency
system.l2cache.demand_avg_miss_latency::total 96668.574699                       # average overall miss latency
system.l2cache.overall_avg_miss_latency::.cpu.inst 101064.102564                       # average overall miss latency
system.l2cache.overall_avg_miss_latency::.cpu.data 95060.203284                       # average overall miss latency
system.l2cache.overall_avg_miss_latency::total 96668.574699                       # average overall miss latency
system.l2cache.blocked_cycles::no_mshrs             0                       # number of cycles access was blocked
system.l2cache.blocked_cycles::no_targets            0                       # number of cycles access was blocked
system.l2cache.blocked::no_mshrs                    0                       # number of cycles access was blocked
system.l2cache.blocked::no_targets                  0                       # number of cycles access was blocked
system.l2cache.avg_blocked_cycles::no_mshrs          nan                       # average number of cycles each access was blocked
system.l2cache.avg_blocked_cycles::no_targets          nan                       # average number of cycles each access was blocked
system.l2cache.demand_mshr_misses::.cpu.inst          468                       # number of demand (read+write) MSHR misses
system.l2cache.demand_mshr_misses::.cpu.data         1279                       # number of demand (read+write) MSHR misses
system.l2cache.demand_mshr_misses::total         1747                       # number of demand (read+write) MSHR misses
system.l2cache.overall_mshr_misses::.cpu.inst          468                       # number of overall MSHR misses
[...]
system.mem_ctrl.wrQLenPdf::61                       0                       # What write queue length does an incoming req see
system.mem_ctrl.wrQLenPdf::62                       0                       # What write queue length does an incoming req see
system.mem_ctrl.wrQLenPdf::63                       0                       # What write queue length does an incoming req see
system.mem_ctrl.bytesReadWrQ                        0                       # Total number of bytes read from write queue
system.mem_ctrl.bytesReadSys                   111808                       # Total read bytes from the system interface side
system.mem_ctrl.bytesWrittenSys                     0                       # Total written bytes from the system interface side
system.mem_ctrl.avgRdBWSys                     633.14                       # Average system read bandwidth in MiByte/s
system.mem_ctrl.avgWrBWSys                       0.00                       # Average system write bandwidth in MiByte/s
system.mem_ctrl.totGap                      176474000                       # Total gap between requests
system.mem_ctrl.avgGap                      101015.46                       # Average gap between requests
system.mem_ctrl.requestorReadBytes::.cpu.inst        29952                       # Per-requestor bytes read from memory
system.mem_ctrl.requestorReadBytes::.cpu.data        81856                       # Per-requestor bytes read from memory
system.mem_ctrl.requestorReadRate::.cpu.inst 169609386.502372682095                       # Per-requestor bytes read from memory rate (Bytes/sec)
system.mem_ctrl.requestorReadRate::.cpu.data 463526507.129347562790                       # Per-requestor bytes read from memory rate (Bytes/sec)
system.mem_ctrl.requestorReadAccesses::.cpu.inst          468                       # Per-requestor read serviced memory accesses
system.mem_ctrl.requestorReadAccesses::.cpu.data         1279                       # Per-requestor read serviced memory accesses
system.mem_ctrl.requestorReadTotalLat::.cpu.inst     13907250                       # Per-requestor read total memory access latency
system.mem_ctrl.requestorReadTotalLat::.cpu.data     30392500                       # Per-requestor read total memory access latency
system.mem_ctrl.requestorReadAvgLat::.cpu.inst     29716.35                       # Per-requestor read average memory access latency
system.mem_ctrl.requestorReadAvgLat::.cpu.data     23762.71                       # Per-requestor read average memory access latency
system.mem_ctrl.dram.bytes_read::.cpu.inst        29952                       # Number of bytes read from this memory
system.mem_ctrl.dram.bytes_read::.cpu.data        81856                       # Number of bytes read from this memory
system.mem_ctrl.dram.bytes_read::total         111808                       # Number of bytes read from this memory
system.mem_ctrl.dram.bytes_inst_read::.cpu.inst        29952                       # Number of instructions bytes read from this memory
system.mem_ctrl.dram.bytes_inst_read::total        29952                       # Number of instructions bytes read from this memory
system.mem_ctrl.dram.num_reads::.cpu.inst          468                       # Number of read requests responded to by this memory
system.mem_ctrl.dram.num_reads::.cpu.data         1279                       # Number of read requests responded to by this memory
system.mem_ctrl.dram.num_reads::total            1747                       # Number of read requests responded to by this memory
system.mem_ctrl.dram.bw_read::.cpu.inst     169609387                       # Total read bandwidth from this memory (bytes/s)
system.mem_ctrl.dram.bw_read::.cpu.data     463526507                       # Total read bandwidth from this memory (bytes/s)
system.mem_ctrl.dram.bw_read::total         633135894                       # Total read bandwidth from this memory (bytes/s)
system.mem_ctrl.dram.bw_inst_read::.cpu.inst    169609387                       # Instruction read bandwidth from this memory (bytes/s)
system.mem_ctrl.dram.bw_inst_read::total    169609387                       # Instruction read bandwidth from this memory (bytes/s)
system.mem_ctrl.dram.bw_total::.cpu.inst    169609387                       # Total bandwidth to/from this memory (bytes/s)
system.mem_ctrl.dram.bw_total::.cpu.data    463526507                       # Total bandwidth to/from this memory (bytes/s)
system.mem_ctrl.dram.bw_total::total        633135894                       # Total bandwidth to/from this memory (bytes/s)
system.mem_ctrl.dram.readBursts                  1747                       # Number of DRAM read bursts
system.mem_ctrl.dram.writeBursts                    0                       # Number of DRAM write bursts
system.mem_ctrl.dram.perBankRdBursts::0           157                       # Per bank write bursts
system.mem_ctrl.dram.perBankRdBursts::1           159                       # Per bank write bursts
system.mem_ctrl.dram.perBankRdBursts::2            81                       # Per bank write bursts
system.mem_ctrl.dram.perBankRdBursts::3           120                       # Per bank write bursts
system.mem_ctrl.dram.perBankRdBursts::4            71                       # Per bank write bursts
system.mem_ctrl.dram.perBankRdBursts::5            81                       # Per bank write bursts
system.mem_ctrl.dram.perBankRdBursts::6           137                       # Per bank write bursts
system.mem_ctrl.dram.perBankRdBursts::7           105                       # Per bank write bursts
system.mem_ctrl.dram.perBankRdBursts::8            77                       # Per bank write bursts
system.mem_ctrl.dram.perBankRdBursts::9            75                       # Per bank write bursts
system.mem_ctrl.dram.perBankRdBursts::10           78                       # Per bank write bursts
system.mem_ctrl.dram.perBankRdBursts::11           99                       # Per bank write bursts
system.mem_ctrl.dram.perBankRdBursts::12          128                       # Per bank write bursts
system.mem_ctrl.dram.perBankRdBursts::13           79                       # Per bank write bursts
system.mem_ctrl.dram.perBankRdBursts::14          127                       # Per bank write bursts
system.mem_ctrl.dram.perBankRdBursts::15          173                       # Per bank write bursts
system.mem_ctrl.dram.perBankWrBursts::0             0                       # Per bank write bursts
system.mem_ctrl.dram.perBankWrBursts::1             0                       # Per bank write bursts
system.mem_ctrl.dram.perBankWrBursts::2             0                       # Per bank write bursts
system.mem_ctrl.dram.perBankWrBursts::3             0                       # Per bank write bursts
system.mem_ctrl.dram.perBankWrBursts::4             0                       # Per bank write bursts
system.mem_ctrl.dram.perBankWrBursts::5             0                       # Per bank write bursts
system.mem_ctrl.dram.perBankWrBursts::6             0                       # Per bank write bursts
system.mem_ctrl.dram.perBankWrBursts::7             0                       # Per bank write bursts
system.mem_ctrl.dram.perBankWrBursts::8             0                       # Per bank write bursts
system.mem_ctrl.dram.perBankWrBursts::9             0                       # Per bank write bursts
system.mem_ctrl.dram.perBankWrBursts::10            0                       # Per bank write bursts
system.mem_ctrl.dram.perBankWrBursts::11            0                       # Per bank write bursts
system.mem_ctrl.dram.perBankWrBursts::12            0                       # Per bank write bursts
system.mem_ctrl.dram.perBankWrBursts::13            0                       # Per bank write bursts
system.mem_ctrl.dram.perBankWrBursts::14            0                       # Per bank write bursts
system.mem_ctrl.dram.perBankWrBursts::15            0                       # Per bank write bursts
system.mem_ctrl.dram.totQLat                 11543500                       # Total ticks spent queuing
system.mem_ctrl.dram.totBusLat                8735000                       # Total ticks spent in databus transfers
system.mem_ctrl.dram.totMemAccLat            44299750                       # Total ticks spent from burst creation until serviced by the DRAM
system.mem_ctrl.dram.avgQLat                  6607.61                       # Average queueing delay per DRAM burst
system.mem_ctrl.dram.avgBusLat                5000.00                       # Average bus latency per DRAM burst
system.mem_ctrl.dram.avgMemAccLat            25357.61                       # Average memory access latency per DRAM burst
system.mem_ctrl.dram.readRowHits                 1488                       # Number of row buffer hits during reads
system.mem_ctrl.dram.writeRowHits                   0                       # Number of row buffer hits during writes
system.mem_ctrl.dram.readRowHitRate             85.17                       # Row buffer hit rate for reads
system.mem_ctrl.dram.writeRowHitRate              nan                       # Row buffer hit rate for writes
system.mem_ctrl.dram.bytesPerActivate::samples          250                       # Bytes accessed per row activation
system.mem_ctrl.dram.bytesPerActivate::mean   436.992000                       # Bytes accessed per row activation
system.mem_ctrl.dram.bytesPerActivate::gmean   249.990949                       # Bytes accessed per row activation
system.mem_ctrl.dram.bytesPerActivate::stdev   405.656600                       # Bytes accessed per row activation
system.mem_ctrl.dram.bytesPerActivate::0-127           71     28.40%     28.40% # Bytes accessed per row activation
system.mem_ctrl.dram.bytesPerActivate::128-255           58     23.20%     51.60% # Bytes accessed per row activation
system.mem_ctrl.dram.bytesPerActivate::256-383           20      8.00%     59.60% # Bytes accessed per row activation
system.mem_ctrl.dram.bytesPerActivate::384-511           11      4.40%     64.00% # Bytes accessed per row activation
system.mem_ctrl.dram.bytesPerActivate::512-639            5      2.00%     66.00% # Bytes accessed per row activation
system.mem_ctrl.dram.bytesPerActivate::640-767            8      3.20%     69.20% # Bytes accessed per row activation
system.mem_ctrl.dram.bytesPerActivate::768-895            4      1.60%     70.80% # Bytes accessed per row activation
system.mem_ctrl.dram.bytesPerActivate::896-1023            5      2.00%     72.80% # Bytes accessed per row activation
system.mem_ctrl.dram.bytesPerActivate::1024-1151           68     27.20%    100.00% # Bytes accessed per row activation
system.mem_ctrl.dram.bytesPerActivate::total          250                       # Bytes accessed per row activation
system.mem_ctrl.dram.bytesRead                 111808                       # Total number of bytes read from DRAM
system.mem_ctrl.dram.bytesWritten                   0                       # Total number of bytes written to DRAM
system.mem_ctrl.dram.avgRdBW               633.135894                       # Average DRAM read bandwidth in MiBytes/s
system.mem_ctrl.dram.avgWrBW                        0                       # Average DRAM write bandwidth in MiBytes/s
system.mem_ctrl.dram.peakBW                  12800.00                       # Theoretical peak bandwidth in MiByte/s
system.mem_ctrl.dram.busUtil                     4.95                       # Data bus utilization in percentage
system.mem_ctrl.dram.busUtilRead                 4.95                       # Data bus utilization in percentage for reads
system.mem_ctrl.dram.busUtilWrite                0.00                       # Data bus utilization in percentage for writes
system.mem_ctrl.dram.pageHitRate                85.17                       # Row buffer hit rate, read and write combined
system.mem_ctrl.dram.power_state.pwrStateResidencyTicks::UNDEFINED    176594000                       # Cumulative time (in ticks) in various power states
system.mem_ctrl.dram.rank0.actEnergy          1120980                       # Energy for activate commands per rank (pJ)
system.mem_ctrl.dram.rank0.preEnergy           576840                       # Energy for precharge commands per rank (pJ)
system.mem_ctrl.dram.rank0.readEnergy         6504540                       # Energy for read commands per rank (pJ)
system.mem_ctrl.dram.rank0.writeEnergy              0                       # Energy for write commands per rank (pJ)
system.mem_ctrl.dram.rank0.refreshEnergy 13522080.000000                       # Energy for refresh commands per rank (pJ)
system.mem_ctrl.dram.rank0.actBackEnergy     36242880                       # Energy for active background per rank (pJ)
system.mem_ctrl.dram.rank0.preBackEnergy     37292160                       # Energy for precharge background per rank (pJ)
system.mem_ctrl.dram.rank0.actPowerDownEnergy            0                       # Energy for active power-down per rank (pJ)
system.mem_ctrl.dram.rank0.prePowerDownEnergy            0                       # Energy for precharge power-down per rank (pJ)
system.mem_ctrl.dram.rank0.selfRefreshEnergy            0                       # Energy for self refresh per rank (pJ)
system.mem_ctrl.dram.rank0.totalEnergy       95259480                       # Total energy per rank (pJ)
system.mem_ctrl.dram.rank0.averagePower    539.426481                       # Core power per rank (mW)
system.mem_ctrl.dram.rank0.totalIdleTime            0                       # Total Idle time Per DRAM Rank
system.mem_ctrl.dram.rank0.pwrStateTime::IDLE     96658250                       # Time in different power states
system.mem_ctrl.dram.rank0.pwrStateTime::REF      5720000                       # Time in different power states
system.mem_ctrl.dram.rank0.pwrStateTime::SREF            0                       # Time in different power states
system.mem_ctrl.dram.rank0.pwrStateTime::PRE_PDN            0                       # Time in different power states
system.mem_ctrl.dram.rank0.pwrStateTime::ACT     74215750                       # Time in different power states
system.mem_ctrl.dram.rank0.pwrStateTime::ACT_PDN            0                       # Time in different power states
system.mem_ctrl.dram.rank1.actEnergy           728280                       # Energy for activate commands per rank (pJ)
system.mem_ctrl.dram.rank1.preEnergy           371910                       # Energy for precharge commands per rank (pJ)
system.mem_ctrl.dram.rank1.readEnergy         5969040                       # Energy for read commands per rank (pJ)
system.mem_ctrl.dram.rank1.writeEnergy              0                       # Energy for write commands per rank (pJ)
system.mem_ctrl.dram.rank1.refreshEnergy 13522080.000000                       # Energy for refresh commands per rank (pJ)
system.mem_ctrl.dram.rank1.actBackEnergy     34806480                       # Energy for active background per rank (pJ)
system.mem_ctrl.dram.rank1.preBackEnergy     38501760                       # Energy for precharge background per rank (pJ)
system.mem_ctrl.dram.rank1.actPowerDownEnergy            0                       # Energy for active power-down per rank (pJ)
system.mem_ctrl.dram.rank1.prePowerDownEnergy            0                       # Energy for precharge power-down per rank (pJ)
system.mem_ctrl.dram.rank1.selfRefreshEnergy            0                       # Energy for self refresh per rank (pJ)
system.mem_ctrl.dram.rank1.totalEnergy       93899550                       # Total energy per rank (pJ)
system.mem_ctrl.dram.rank1.averagePower    531.725597                       # Core power per rank (mW)
system.mem_ctrl.dram.rank1.totalIdleTime            0                       # Total Idle time Per DRAM Rank
system.mem_ctrl.dram.rank1.pwrStateTime::IDLE     99677750                       # Time in different power states
system.mem_ctrl.dram.rank1.pwrStateTime::REF      5720000                       # Time in different power states
system.mem_ctrl.dram.rank1.pwrStateTime::SREF            0                       # Time in different power states
system.mem_ctrl.dram.rank1.pwrStateTime::PRE_PDN            0                       # Time in different power states
system.mem_ctrl.dram.rank1.pwrStateTime::ACT     71196250                       # Time in different power states
system.mem_ctrl.dram.rank1.pwrStateTime::ACT_PDN            0                       # Time in different power states
system.mem_ctrl.power_state.pwrStateResidencyTicks::UNDEFINED    176594000                       # Cumulative time (in ticks) in various power states
system.membus.trans_dist::ReadResp               1629                       # Transaction distribution
system.membus.trans_dist::CleanEvict               74                       # Transaction distribution
system.membus.trans_dist::ReadExReq               118                       # Transaction distribution
system.membus.trans_dist::ReadExResp              118                       # Transaction distribution
system.membus.trans_dist::ReadSharedReq          1629                       # Transaction distribution
system.membus.pkt_count_system.l2cache.mem_side_port::system.mem_ctrl.port         3568                       # Packet count per connected requestor and responder (bytes)
system.membus.pkt_count_system.l2cache.mem_side_port::total         3568                       # Packet count per connected requestor and responder (bytes)
system.membus.pkt_count::total                   3568                       # Packet count per connected requestor and responder (bytes)
system.membus.pkt_size_system.l2cache.mem_side_port::system.mem_ctrl.port       111808                       # Cumulative packet size per connected requestor and responder (bytes)
system.membus.pkt_size_system.l2cache.mem_side_port::total       111808                       # Cumulative packet size per connected requestor and responder (bytes)
system.membus.pkt_size::total                  111808                       # Cumulative packet size per connected requestor and responder (bytes)
system.membus.snoops                                0                       # Total snoops (count)
system.membus.snoopTraffic                          0                       # Total snoop traffic (bytes)
system.membus.snoop_fanout::samples              1747                       # Request fanout histogram
system.membus.snoop_fanout::mean                    0                       # Request fanout histogram
system.membus.snoop_fanout::stdev                   0                       # Request fanout histogram
system.membus.snoop_fanout::underflows              0      0.00%      0.00% # Request fanout histogram
system.membus.snoop_fanout::0                    1747    100.00%    100.00% # Request fanout histogram
system.membus.snoop_fanout::1                       0      0.00%    100.00% # Request fanout histogram
system.membus.snoop_fanout::overflows               0      0.00%    100.00% # Request fanout histogram
system.membus.snoop_fanout::min_value               0                       # Request fanout histogram
system.membus.snoop_fanout::max_value               0                       # Request fanout histogram
system.membus.snoop_fanout::total                1747                       # Request fanout histogram
system.membus.power_state.pwrStateResidencyTicks::UNDEFINED    176594000                       # Cumulative time (in ticks) in various power states
system.membus.reqLayer2.occupancy             1821000                       # Layer occupancy (ticks)
system.membus.reqLayer2.utilization               1.0                       # Layer utilization (%)
system.membus.respLayer0.occupancy            9198500                       # Layer occupancy (ticks)
system.membus.respLayer0.utilization              5.2                       # Layer utilization (%)

---------- End Simulation Statistics   ----------
