
---------- Begin Simulation Statistics ----------
final_tick                                 1052655000                       # Number of ticks from beginning of simulation (restored from checkpoints and never reset)
host_inst_rate                                 254616                       # Simulator instruction rate (inst/s)
host_mem_usage                                 665100                       # Number of bytes of host memory used
host_op_rate                                   471715                       # Simulator op (including micro ops) rate (op/s)
host_seconds                                     0.79                       # Real time elapsed on the host
host_tick_rate                             1324761101                       # Simulator tick rate (ticks/s)
sim_freq                                 1000000000000                       # Frequency of simulated ticks
sim_insts                                      202244                       # Number of instructions simulated
sim_ops                                        374800                       # Number of ops (including micro ops) simulated
sim_seconds                                  0.001053                       # Number of seconds simulated
sim_ticks                                  1052655000                       # Number of ticks simulated
system.cpu.Branches                             44971                       # Number of branches fetched
system.cpu.committedInsts                      202244                       # Number of instructions committed
system.cpu.committedOps                        374800                       # Number of ops (including micro ops) committed
system.cpu.idle_fraction                     0.000000                       # Percentage of idle cycles
system.cpu.not_idle_fraction                 1.000000                       # Percentage of non-idle cycles
system.cpu.numCycles                          1052655                       # number of cpu cycles simulated
system.cpu.numWorkItemsCompleted                    0                       # number of work items this cpu completed
system.cpu.numWorkItemsStarted                      0                       # number of work items this cpu started
system.cpu.num_busy_cycles               1052654.999000                       # Number of busy cycles
system.cpu.num_cc_register_reads               235324                       # number of times the CC registers were read
system.cpu.num_cc_register_writes              147849                       # number of times the CC registers were written
system.cpu.num_conditional_control_insts        37223                       # number of instructions that are conditional controls
system.cpu.num_fp_alu_accesses                   7844                       # Number of float alu accesses
system.cpu.num_fp_insts                          7844                       # number of float instructions
system.cpu.num_fp_register_reads                11366                       # number of times the floating registers were read
system.cpu.num_fp_register_writes                5874                       # number of times the floating registers were written
system.cpu.num_func_calls                        2522                       # number of times a function call or return occured
system.cpu.num_idle_cycles                   0.001000                       # Number of idle cycles
system.cpu.num_int_alu_accesses                367599                       # Number of integer alu accesses
system.cpu.num_int_insts                       367599                       # number of integer instructions
system.cpu.num_int_register_reads              709281                       # number of times the integer registers were read
system.cpu.num_int_register_writes             307424                       # number of times the integer registers were written
system.cpu.num_load_insts                       46212                       # Number of load instructions
system.cpu.num_mem_refs                         63458                       # number of memory refs
system.cpu.num_store_insts                      17246                       # Number of store instructions
system.cpu.num_vec_alu_accesses                     0                       # Number of vector alu accesses
system.cpu.num_vec_insts                            0                       # number of vector instructions
system.cpu.num_vec_register_reads                   0                       # number of times the vector registers were read
system.cpu.num_vec_register_writes                  0                       # number of times the vector registers were written
system.cpu.op_class::No_OpClass                  2940      0.78%      0.78% # Class of executed instruction
system.cpu.op_class::IntAlu                    302291     80.63%     81.41% # Class of executed instruction
system.cpu.op_class::IntMult                       17      0.00%     81.42% # Class of executed instruction
system.cpu.op_class::IntDiv                      1385      0.37%     81.79% # Class of executed instruction
system.cpu.op_class::FloatAdd                     468      0.12%     81.91% # Class of executed instruction
system.cpu.op_class::FloatCmp                       0      0.00%     81.91% # Class of executed instruction
system.cpu.op_class::FloatCvt                      80      0.02%     81.93% # Class of executed instruction
system.cpu.op_class::FloatMult                      0      0.00%     81.93% # Class of executed instruction
system.cpu.op_class::FloatMultAcc                   0      0.00%     81.93% # Class of executed instruction
system.cpu.op_class::FloatDiv                       0      0.00%     81.93% # Class of executed instruction
system.cpu.op_class::FloatMisc                      0      0.00%     81.93% # Class of executed instruction
system.cpu.op_class::FloatSqrt                      0      0.00%     81.93% # Class of executed instruction
system.cpu.op_class::SimdAdd                      308      0.08%     82.02% # Class of executed instruction
system.cpu.op_class::SimdAddAcc                     0      0.00%     82.02% # Class of executed instruction
system.cpu.op_class::SimdAlu                     1137      0.30%     82.32% # Class of executed instruction
system.cpu.op_class::SimdCmp                       12      0.00%     82.32% # Class of executed instruction
system.cpu.op_class::SimdCvt                     1086      0.29%     82.61% # Class of executed instruction
system.cpu.op_class::SimdMisc                    1618      0.43%     83.04% # Class of executed instruction
system.cpu.op_class::SimdMult                       0      0.00%     83.04% # Class of executed instruction
system.cpu.op_class::SimdMultAcc                    0      0.00%     83.04% # Class of executed instruction
system.cpu.op_class::SimdShift                    117      0.03%     83.07% # Class of executed instruction
system.cpu.op_class::SimdShiftAcc                   0      0.00%     83.07% # Class of executed instruction
system.cpu.op_class::SimdDiv                        0      0.00%     83.07% # Class of executed instruction
system.cpu.op_class::SimdSqrt                       0      0.00%     83.07% # Class of executed instruction
system.cpu.op_class::SimdFloatAdd                   0      0.00%     83.07% # Class of executed instruction
system.cpu.op_class::SimdFloatAlu                   0      0.00%     83.07% # Class of executed instruction
system.cpu.op_class::SimdFloatCmp                   0      0.00%     83.07% # Class of executed instruction
system.cpu.op_class::SimdFloatCvt                   0      0.00%     83.07% # Class of executed instruction
system.cpu.op_class::SimdFloatDiv                   0      0.00%     83.07% # Class of executed instruction
system.cpu.op_class::SimdFloatMisc                  0      0.00%     83.07% # Class of executed instruction
system.cpu.op_class::SimdFloatMult                  0      0.00%     83.07% # Class of executed instruction
system.cpu.op_class::SimdFloatMultAcc               0      0.00%     83.07% # Class of executed instruction
system.cpu.op_class::SimdFloatSqrt                  0      0.00%     83.07% # Class of executed instruction
system.cpu.op_class::SimdReduceAdd                  0      0.00%     83.07% # Class of executed instruction
system.cpu.op_class::SimdReduceAlu                  0      0.00%     83.07% # Class of executed instruction
system.cpu.op_class::SimdReduceCmp                  0      0.00%     83.07% # Class of executed instruction
system.cpu.op_class::SimdFloatReduceAdd             0      0.00%     83.07% # Class of executed instruction
system.cpu.op_class::SimdFloatReduceCmp             0      0.00%     83.07% # Class of executed instruction
system.cpu.op_class::SimdAes                        0      0.00%     83.07% # Class of executed instruction
system.cpu.op_class::SimdAesMix                     0      0.00%     83.07% # Class of executed instruction
system.cpu.op_class::SimdSha1Hash                   0      0.00%     83.07% # Class of executed instruction
system.cpu.op_class::SimdSha1Hash2                  0      0.00%     83.07% # Class of executed instruction
system.cpu.op_class::SimdSha256Hash                 0      0.00%     83.07% # Class of executed instruction
system.cpu.op_class::SimdSha256Hash2                0      0.00%     83.07% # Class of executed instruction
system.cpu.op_class::SimdShaSigma2                  0      0.00%     83.07% # Class of executed instruction
system.cpu.op_class::SimdShaSigma3                  0      0.00%     83.07% # Class of executed instruction
system.cpu.op_class::SimdPredAlu                    0      0.00%     83.07% # Class of executed instruction
system.cpu.op_class::MemRead                    45006     12.00%     95.08% # Class of executed instruction
system.cpu.op_class::MemWrite                   15970      4.26%     99.34% # Class of executed instruction
system.cpu.op_class::FloatMemRead                1206      0.32%     99.66% # Class of executed instruction
system.cpu.op_class::FloatMemWrite               1276      0.34%    100.00% # Class of executed instruction
system.cpu.op_class::IprAccess                      0      0.00%    100.00% # Class of executed instruction
system.cpu.op_class::InstPrefetch                   0      0.00%    100.00% # Class of executed instruction
system.cpu.op_class::total                     374917                       # Class of executed instruction
system.cpu.workload.numSyscalls                    59                       # Number of system calls
system.l2bus.snoop_filter.hit_multi_requests            0                       # Number of requests hitting in the snoop filter with multiple (>1) holders of the requested data.
system.l2bus.snoop_filter.hit_multi_snoops            0                       # Number of snoops hitting in the snoop filter with multiple (>1) holders of the requested data.
system.l2bus.snoop_filter.hit_single_requests         3624                       # Number of requests hitting in the snoop filter with a single holder of the requested data.
system.l2bus.snoop_filter.hit_single_snoops          175                       # Number of snoops hitting in the snoop filter with a single holder of the requested data.
system.l2bus.snoop_filter.tot_requests           8526                       # Total number of requests made to the snoop filter.
system.l2bus.snoop_filter.tot_snoops              175                       # Total number of snoops made to the snoop filter.
system.membus.snoop_filter.hit_multi_requests            0                       # Number of requests hitting in the snoop filter with multiple (>1) holders of the requested data.
system.membus.snoop_filter.hit_multi_snoops            0                       # Number of snoops hitting in the snoop filter with multiple (>1) holders of the requested data.
system.membus.snoop_filter.hit_single_requests          114                       # Number of requests hitting in the snoop filter with a single holder of the requested data.
system.membus.snoop_filter.hit_single_snoops            0                       # Number of snoops hitting in the snoop filter with a single holder of the requested data.
system.membus.snoop_filter.tot_requests          3731                       # Total number of requests made to the snoop filter.
system.membus.snoop_filter.tot_snoops               0                       # Total number of snoops made to the snoop filter.
system.clk_domain.clock                          1000                       # Clock period in ticks
system.clk_domain.voltage_domain.voltage            1                       # Voltage in Volts
system.cpu.dcache.demand_hits::.cpu.data        60581                       # number of demand (read+write) hits
system.cpu.dcache.demand_hits::total            60581                       # number of demand (read+write) hits
system.cpu.dcache.overall_hits::.cpu.data        60581                       # number of overall hits
system.cpu.dcache.overall_hits::total           60581                       # number of overall hits
system.cpu.dcache.demand_misses::.cpu.data         2916                       # number of demand (read+write) misses
system.cpu.dcache.demand_misses::total           2916                       # number of demand (read+write) misses
system.cpu.dcache.overall_misses::.cpu.data         2916                       # number of overall misses
system.cpu.dcache.overall_misses::total          2916                       # number of overall misses
system.cpu.dcache.demand_miss_latency::.cpu.data    274357000                       # number of demand (read+write) miss cycles
system.cpu.dcache.demand_miss_latency::total    274357000                       # number of demand (read+write) miss cycles
system.cpu.dcache.overall_miss_latency::.cpu.data    274357000                       # number of overall miss cycles
system.cpu.dcache.overall_miss_latency::total    274357000                       # number of overall miss cycles
system.cpu.dcache.demand_accesses::.cpu.data        63497                       # number of demand (read+write) accesses
system.cpu.dcache.demand_accesses::total        63497                       # number of demand (read+write) accesses
system.cpu.dcache.overall_accesses::.cpu.data        63497                       # number of overall (read+write) accesses
system.cpu.dcache.overall_accesses::total        63497                       # number of overall (read+write) accesses
system.cpu.dcache.demand_miss_rate::.cpu.data     0.045923                       # miss rate for demand accesses
system.cpu.dcache.demand_miss_rate::total     0.045923                       # miss rate for demand accesses
system.cpu.dcache.overall_miss_rate::.cpu.data     0.045923                       # miss rate for overall accesses
system.cpu.dcache.overall_miss_rate::total     0.045923                       # miss rate for overall accesses
system.cpu.dcache.demand_avg_miss_latency::.cpu.data 94086.762689                       # average overall miss latency
system.cpu.dcache.demand_avg_miss_latency::total 94086.762689                       # average overall miss latency
system.cpu.dcache.overall_avg_miss_latency::.cpu.data 94086.762689                       # average overall miss latency
system.cpu.dcache.overall_avg_miss_latency::total 94086.762689                       # average overall miss latency
system.cpu.dcache.blocked_cycles::no_mshrs            0                       # number of cycles access was blocked
system.cpu.dcache.blocked_cycles::no_targets            0                       # number of cycles access was blocked
system.cpu.dcache.blocked::no_mshrs                 0                       # number of cycles access was blocked
system.cpu.dcache.blocked::no_targets               0                       # number of cycles access was blocked
system.cpu.dcache.avg_blocked_cycles::no_mshrs          nan                       # average number of cycles each access was blocked
system.cpu.dcache.avg_blocked_cycles::no_targets          nan                       # average number of cycles each access was blocked
system.cpu.dcache.writebacks::.writebacks          571                       # number of writebacks
system.cpu.dcache.writebacks::total               571                       # number of writebacks
system.cpu.dcache.demand_mshr_misses::.cpu.data         2916                       # number of demand (read+write) MSHR misses
system.cpu.dcache.demand_mshr_misses::total         2916                       # number of demand (read+write) MSHR misses
system.cpu.dcache.overall_mshr_misses::.cpu.data         2916                       # number of overall MSHR misses
system.cpu.dcache.overall_mshr_misses::total         2916                       # number of overall MSHR misses
system.cpu.dcache.demand_mshr_miss_latency::.cpu.data    268525000                       # number of demand (read+write) MSHR miss cycles
system.cpu.dcache.demand_mshr_miss_latency::total    268525000                       # number of demand (read+write) MSHR miss cycles
system.cpu.dcache.overall_mshr_miss_latency::.cpu.data    268525000                       # number of overall MSHR miss cycles
system.cpu.dcache.overall_mshr_miss_latency::total    268525000                       # number of overall MSHR miss cycles
system.cpu.dcache.demand_mshr_miss_rate::.cpu.data     0.045923                       # mshr miss rate for demand accesses
system.cpu.dcache.demand_mshr_miss_rate::total     0.045923                       # mshr miss rate for demand accesses
system.cpu.dcache.overall_mshr_miss_rate::.cpu.data     0.045923                       # mshr miss rate for overall accesses
system.cpu.dcache.overall_mshr_miss_rate::total     0.045923                       # mshr miss rate for overall accesses
system.cpu.dcache.demand_avg_mshr_miss_latency::.cpu.data 92086.762689                       # average overall mshr miss latency
system.cpu.dcache.demand_avg_mshr_miss_latency::total 92086.762689                       # average overall mshr miss latency
system.cpu.dcache.overall_avg_mshr_miss_latency::.cpu.data 92086.762689                       # average overall mshr miss latency
system.cpu.dcache.overall_avg_mshr_miss_latency::total 92086.762689                       # average overall mshr miss latency
system.cpu.dcache.replacements                   1892                       # number of replacements
system.cpu.dcache.ReadReq_hits::.cpu.data        43962                       # number of ReadReq hits
system.cpu.dcache.ReadReq_hits::total           43962                       # number of ReadReq hits
system.cpu.dcache.ReadReq_misses::.cpu.data         2288                       # number of ReadReq misses
system.cpu.dcache.ReadReq_misses::total          2288                       # number of ReadReq misses
system.cpu.dcache.ReadReq_miss_latency::.cpu.data    215787000                       # number of ReadReq miss cycles
system.cpu.dcache.ReadReq_miss_latency::total    215787000                       # number of ReadReq miss cycles
system.cpu.dcache.ReadReq_accesses::.cpu.data        46250                       # number of ReadReq accesses(hits+misses)
system.cpu.dcache.ReadReq_accesses::total        46250                       # number of ReadReq accesses(hits+misses)
system.cpu.dcache.ReadReq_miss_rate::.cpu.data     0.049470                       # miss rate for ReadReq accesses
system.cpu.dcache.ReadReq_miss_rate::total     0.049470                       # miss rate for ReadReq accesses
system.cpu.dcache.ReadReq_avg_miss_latency::.cpu.data 94312.500000                       # average ReadReq miss latency
system.cpu.dcache.ReadReq_avg_miss_latency::total 94312.500000                       # average ReadReq miss latency
system.cpu.dcache.ReadReq_mshr_misses::.cpu.data         2288                       # number of ReadReq MSHR misses
system.cpu.dcache.ReadReq_mshr_misses::total         2288                       # number of ReadReq MSHR misses
system.cpu.dcache.ReadReq_mshr_miss_latency::.cpu.data    211211000                       # number of ReadReq MSHR miss cycles
system.cpu.dcache.ReadReq_mshr_miss_latency::total    211211000                       # number of ReadReq MSHR miss cycles
system.cpu.dcache.ReadReq_mshr_miss_rate::.cpu.data     0.049470                       # mshr miss rate for ReadReq accesses
system.cpu.dcache.ReadReq_mshr_miss_rate::total     0.049470                       # mshr miss rate for ReadReq accesses
system.cpu.dcache.ReadReq_avg_mshr_miss_latency::.cpu.data 92312.500000                       # average ReadReq mshr miss latency
system.cpu.dcache.ReadReq_avg_mshr_miss_latency::total 92312.500000                       # average ReadReq mshr miss latency
system.cpu.dcache.WriteReq_hits::.cpu.data        16619                       # number of WriteReq hits
system.cpu.dcache.WriteReq_hits::total          16619                       # number of WriteReq hits
system.cpu.dcache.WriteReq_misses::.cpu.data          628                       # number of WriteReq misses
system.cpu.dcache.WriteReq_misses::total          628                       # number of WriteReq misses
system.cpu.dcache.WriteReq_miss_latency::.cpu.data     58570000                       # number of WriteReq miss cycles
system.cpu.dcache.WriteReq_miss_latency::total     58570000                       # number of WriteReq miss cycles
system.cpu.dcache.WriteReq_accesses::.cpu.data        17247                       # number of WriteReq accesses(hits+misses)
system.cpu.dcache.WriteReq_accesses::total        17247                       # number of WriteReq accesses(hits+misses)
system.cpu.dcache.WriteReq_miss_rate::.cpu.data     0.036412                       # miss rate for WriteReq accesses
system.cpu.dcache.WriteReq_miss_rate::total     0.036412                       # miss rate for WriteReq accesses
system.cpu.dcache.WriteReq_avg_miss_latency::.cpu.data 93264.331210                       # average WriteReq miss latency
system.cpu.dcache.WriteReq_avg_miss_latency::total 93264.331210                       # average WriteReq miss latency
system.cpu.dcache.WriteReq_mshr_misses::.cpu.data          628                       # number of WriteReq MSHR misses
system.cpu.dcache.WriteReq_mshr_misses::total          628                       # number of WriteReq MSHR misses
system.cpu.dcache.WriteReq_mshr_miss_latency::.cpu.data     57314000                       # number of WriteReq MSHR miss cycles
system.cpu.dcache.WriteReq_mshr_miss_latency::total     57314000                       # number of WriteReq MSHR miss cycles
system.cpu.dcache.WriteReq_mshr_miss_rate::.cpu.data     0.036412                       # mshr miss rate for WriteReq accesses
system.cpu.dcache.WriteReq_mshr_miss_rate::total     0.036412                       # mshr miss rate for WriteReq accesses
system.cpu.dcache.WriteReq_avg_mshr_miss_latency::.cpu.data 91264.331210                       # average WriteReq mshr miss latency
system.cpu.dcache.WriteReq_avg_mshr_miss_latency::total 91264.331210                       # average WriteReq mshr miss latency
system.cpu.dcache.power_state.pwrStateResidencyTicks::UNDEFINED   1052655000                       # Cumulative time (in ticks) in various power states
system.cpu.dcache.tags.tagsinuse           859.831603                       # Cycle average of tags in use
system.cpu.dcache.tags.total_refs               63497                       # Total number of references to valid blocks.
system.cpu.dcache.tags.sampled_refs              2916                       # Sample count of references to valid blocks.
system.cpu.dcache.tags.avg_refs             21.775377                       # Average number of references to valid blocks.
system.cpu.dcache.tags.warmup_cycle            218000                       # Cycle when the warmup percentage was hit.
system.cpu.dcache.tags.occ_blocks::.cpu.data   859.831603                       # Average occupied blocks per requestor
system.cpu.dcache.tags.occ_percent::.cpu.data     0.839679                       # Average percentage of cache occupancy
system.cpu.dcache.tags.occ_percent::total     0.839679                       # Average percentage of cache occupancy
system.cpu.dcache.tags.occ_task_id_blocks::1024         1024                       # Occupied blocks per task id
system.cpu.dcache.tags.age_task_id_blocks_1024::0           18                       # Occupied blocks per task id
system.cpu.dcache.tags.age_task_id_blocks_1024::1            8                       # Occupied blocks per task id
system.cpu.dcache.tags.age_task_id_blocks_1024::2          986                       # Occupied blocks per task id
system.cpu.dcache.tags.age_task_id_blocks_1024::3           12                       # Occupied blocks per task id
system.cpu.dcache.tags.occ_task_id_percent::1024            1                       # Percentage of cache occupancy per task id
system.cpu.dcache.tags.tag_accesses            129910                       # Number of tag accesses
system.cpu.dcache.tags.data_accesses           129910                       # Number of data accesses
system.cpu.dcache.tags.power_state.pwrStateResidencyTicks::UNDEFINED   1052655000                       # Cumulative time (in ticks) in various power states
system.cpu.dtb.rdAccesses                       46297                       # TLB accesses on read requests
system.cpu.dtb.wrAccesses                       17258                       # TLB accesses on write requests
system.cpu.dtb.rdMisses                           159                       # TLB misses on read requests
system.cpu.dtb.wrMisses                            30                       # TLB misses on write requests
system.cpu.dtb.walker.power_state.pwrStateResidencyTicks::UNDEFINED   1052655000                       # Cumulative time (in ticks) in various power states
system.cpu.icache.demand_hits::.cpu.inst       262940                       # number of demand (read+write) hits
system.cpu.icache.demand_hits::total           262940                       # number of demand (read+write) hits
system.cpu.icache.overall_hits::.cpu.inst       262940                       # number of overall hits
system.cpu.icache.overall_hits::total          262940                       # number of overall hits
system.cpu.icache.demand_misses::.cpu.inst         1987                       # number of demand (read+write) misses
system.cpu.icache.demand_misses::total           1987                       # number of demand (read+write) misses
system.cpu.icache.overall_misses::.cpu.inst         1987                       # number of overall misses
system.cpu.icache.overall_misses::total          1987                       # number of overall misses
system.cpu.icache.demand_miss_latency::.cpu.inst    131454000                       # number of demand (read+write) miss cycles
system.cpu.icache.demand_miss_latency::total    131454000                       # number of demand (read+write) miss cycles
system.cpu.icache.overall_miss_latency::.cpu.inst    131454000                       # number of overall miss cycles
system.cpu.icache.overall_miss_latency::total    131454000                       # number of overall miss cycles
system.cpu.icache.demand_accesses::.cpu.inst       264927                       # number of demand (read+write) accesses
system.cpu.icache.demand_accesses::total       264927                       # number of demand (read+write) accesses
system.cpu.icache.overall_accesses::.cpu.inst       264927                       # number of overall (read+write) accesses
system.cpu.icache.overall_accesses::total       264927                       # number of overall (read+write) accesses
system.cpu.icache.demand_miss_rate::.cpu.inst     0.007500                       # miss rate for demand accesses
system.cpu.icache.demand_miss_rate::total     0.007500                       # miss rate for demand accesses
system.cpu.icache.overall_miss_rate::.cpu.inst     0.007500                       # miss rate for overall accesses
system.cpu.icache.overall_miss_rate::total     0.007500                       # miss rate for overall accesses
system.cpu.icache.demand_avg_miss_latency::.cpu.inst 66157.020634                       # average overall miss latency
system.cpu.icache.demand_avg_miss_latency::total 66157.020634                       # average overall miss latency
system.cpu.icache.overall_avg_miss_latency::.cpu.inst 66157.020634                       # average overall miss latency
system.cpu.icache.overall_avg_miss_latency::total 66157.020634                       # average overall miss latency
system.cpu.icache.blocked_cycles::no_mshrs            0                       # number of cycles access was blocked
system.cpu.icache.blocked_cycles::no_targets            0                       # number of cycles access was blocked
system.cpu.icache.blocked::no_mshrs                 0                       # number of cycles access was blocked
system.cpu.icache.blocked::no_targets               0                       # number of cycles access was blocked
system.cpu.icache.avg_blocked_cycles::no_mshrs          nan                       # average number of cycles each access was blocked
system.cpu.icache.avg_blocked_cycles::no_targets          nan                       # average number of cycles each access was blocked
system.cpu.icache.demand_mshr_misses::.cpu.inst         1987                       # number of demand (read+write) MSHR misses
system.cpu.icache.demand_mshr_misses::total         1987                       # number of demand (read+write) MSHR misses
system.cpu.icache.overall_mshr_misses::.cpu.inst         1987                       # number of overall MSHR misses
system.cpu.icache.overall_mshr_misses::total         1987                       # number of overall MSHR misses
system.cpu.icache.demand_mshr_miss_latency::.cpu.inst    127480000                       # number of demand (read+write) MSHR miss cycles
system.cpu.icache.demand_mshr_miss_latency::total    127480000                       # number of demand (read+write) MSHR miss cycles
system.cpu.icache.overall_mshr_miss_latency::.cpu.inst    127480000                       # number of overall MSHR miss cycles
system.cpu.icache.overall_mshr_miss_latency::total    127480000                       # number of overall MSHR miss cycles
system.cpu.icache.demand_mshr_miss_rate::.cpu.inst     0.007500                       # mshr miss rate for demand accesses
system.cpu.icache.demand_mshr_miss_rate::total     0.007500                       # mshr miss rate for demand accesses
system.cpu.icache.overall_mshr_miss_rate::.cpu.inst     0.007500                       # mshr miss rate for overall accesses
system.cpu.icache.overall_mshr_miss_rate::total     0.007500                       # mshr miss rate for overall accesses
system.cpu.icache.demand_avg_mshr_miss_latency::.cpu.inst 64157.020634                       # average overall mshr miss latency
system.cpu.icache.demand_avg_mshr_miss_latency::total 64157.020634                       # average overall mshr miss latency
system.cpu.icache.overall_avg_mshr_miss_latency::.cpu.inst 64157.020634                       # average overall mshr miss latency
system.cpu.icache.overall_avg_mshr_miss_latency::total 64157.020634                       # average overall mshr miss latency
system.cpu.icache.replacements                   1731                       # number of replacements
system.cpu.icache.ReadReq_hits::.cpu.inst       262940                       # number of ReadReq hits
system.cpu.icache.ReadReq_hits::total          262940                       # number of ReadReq hits
system.cpu.icache.ReadReq_misses::.cpu.inst         1987                       # number of ReadReq misses
system.cpu.icache.ReadReq_misses::total          1987                       # number of ReadReq misses
system.cpu.icache.ReadReq_miss_latency::.cpu.inst    131454000                       # number of ReadReq miss cycles
system.cpu.icache.ReadReq_miss_latency::total    131454000                       # number of ReadReq miss cycles
system.cpu.icache.ReadReq_accesses::.cpu.inst       264927                       # number of ReadReq accesses(hits+misses)
system.cpu.icache.ReadReq_accesses::total       264927                       # number of ReadReq accesses(hits+misses)
system.cpu.icache.ReadReq_miss_rate::.cpu.inst     0.007500                       # miss rate for ReadReq accesses
system.cpu.icache.ReadReq_miss_rate::total     0.007500                       # miss rate for ReadReq accesses
system.cpu.icache.ReadReq_avg_miss_latency::.cpu.inst 66157.020634                       # average ReadReq miss latency
system.cpu.icache.ReadReq_avg_miss_latency::total 66157.020634                       # average ReadReq miss latency
system.cpu.icache.ReadReq_mshr_misses::.cpu.inst         1987                       # number of ReadReq MSHR misses
system.cpu.icache.ReadReq_mshr_misses::total         1987                       # number of ReadReq MSHR misses
system.cpu.icache.ReadReq_mshr_miss_latency::.cpu.inst    127480000                       # number of ReadReq MSHR miss cycles
system.cpu.icache.ReadReq_mshr_miss_latency::total    127480000                       # number of ReadReq MSHR miss cycles
system.cpu.icache.ReadReq_mshr_miss_rate::.cpu.inst     0.007500                       # mshr miss rate for ReadReq accesses
system.cpu.icache.ReadReq_mshr_miss_rate::total     0.007500                       # mshr miss rate for ReadReq accesses
system.cpu.icache.ReadReq_avg_mshr_miss_latency::.cpu.inst 64157.020634                       # average ReadReq mshr miss latency
system.cpu.icache.ReadReq_avg_mshr_miss_latency::total 64157.020634                       # average ReadReq mshr miss latency
system.cpu.icache.power_state.pwrStateResidencyTicks::UNDEFINED   1052655000                       # Cumulative time (in ticks) in various power states
system.cpu.icache.tags.tagsinuse           243.321460                       # Cycle average of tags in use
system.cpu.icache.tags.total_refs              264927                       # Total number of references to valid blocks.
system.cpu.icache.tags.sampled_refs              1987                       # Sample count of references to valid blocks.
system.cpu.icache.tags.avg_refs            133.330146                       # Average number of references to valid blocks.
system.cpu.icache.tags.warmup_cycle            107000                       # Cycle when the warmup percentage was hit.
system.cpu.icache.tags.occ_blocks::.cpu.inst   243.321460                       # Average occupied blocks per requestor
system.cpu.icache.tags.occ_percent::.cpu.inst     0.950474                       # Average percentage of cache occupancy
system.cpu.icache.tags.occ_percent::total     0.950474                       # Average percentage of cache occupancy
system.cpu.icache.tags.occ_task_id_blocks::1024          256                       # Occupied blocks per task id
system.cpu.icache.tags.age_task_id_blocks_1024::0           68                       # Occupied blocks per task id
system.cpu.icache.tags.age_task_id_blocks_1024::1           30                       # Occupied blocks per task id
system.cpu.icache.tags.age_task_id_blocks_1024::2          156                       # Occupied blocks per task id
system.cpu.icache.tags.age_task_id_blocks_1024::3            2                       # Occupied blocks per task id
system.cpu.icache.tags.occ_task_id_percent::1024            1                       # Percentage of cache occupancy per task id
system.cpu.icache.tags.tag_accesses            531841                       # Number of tag accesses
system.cpu.icache.tags.data_accesses           531841                       # Number of data accesses
system.cpu.icache.tags.power_state.pwrStateResidencyTicks::UNDEFINED   1052655000                       # Cumulative time (in ticks) in various power states
system.cpu.interrupts.clk_domain.clock          16000                       # Clock period in ticks
system.cpu.itb.rdAccesses                           0                       # TLB accesses on read requests
system.cpu.itb.wrAccesses                      264967                       # TLB accesses on write requests
system.cpu.itb.rdMisses                             0                       # TLB misses on read requests
system.cpu.itb.wrMisses                           153                       # TLB misses on write requests
system.cpu.itb.walker.power_state.pwrStateResidencyTicks::UNDEFINED   1052655000                       # Cumulative time (in ticks) in various power states
system.cpu.power_state.pwrStateResidencyTicks::ON   1052655000                       # Cumulative time (in ticks) in various power states
system.cpu.thread_0.numInsts                        0                       # Number of Instructions committed
system.cpu.thread_0.numOps                          0                       # Number of Ops committed
system.cpu.thread_0.numMemRefs                      0                       # Number of Memory References
system.l2bus.trans_dist::ReadResp                4275                       # Transaction distribution
system.l2bus.trans_dist::WritebackDirty           571                       # Transaction distribution
system.l2bus.trans_dist::CleanEvict              3227                       # Transaction distribution
system.l2bus.trans_dist::ReadExReq                628                       # Transaction distribution
system.l2bus.trans_dist::ReadExResp               628                       # Transaction distribution
system.l2bus.trans_dist::ReadSharedReq           4275                       # Transaction distribution
system.l2bus.pkt_count_system.cpu.icache.mem_side_port::system.l2cache.cpu_side_port         5705                       # Packet count per connected requestor and responder (bytes)
system.l2bus.pkt_count_system.cpu.dcache.mem_side_port::system.l2cache.cpu_side_port         7724                       # Packet count per connected requestor and responder (bytes)
system.l2bus.pkt_count::total                   13429                       # Packet count per connected requestor and responder (bytes)
system.l2bus.pkt_size_system.cpu.icache.mem_side_port::system.l2cache.cpu_side_port       127168                       # Cumulative packet size per connected requestor and responder (bytes)
system.l2bus.pkt_size_system.cpu.dcache.mem_side_port::system.l2cache.cpu_side_port       223168                       # Cumulative packet size per connected requestor and responder (bytes)
system.l2bus.pkt_size::total                   350336                       # Cumulative packet size per connected requestor and responder (bytes)
system.l2bus.snoops                               175                       # Total snoops (count)
system.l2bus.snoopTraffic                           0                       # Total snoop traffic (bytes)
system.l2bus.snoop_fanout::samples               5078                       # Request fanout histogram
system.l2bus.snoop_fanout::mean              0.034659                       # Request fanout histogram
system.l2bus.snoop_fanout::stdev             0.182933                       # Request fanout histogram
system.l2bus.snoop_fanout::underflows               0      0.00%      0.00% # Request fanout histogram
system.l2bus.snoop_fanout::0                     4902     96.53%     96.53% # Request fanout histogram
system.l2bus.snoop_fanout::1                      176      3.47%    100.00% # Request fanout histogram
system.l2bus.snoop_fanout::2                        0      0.00%    100.00% # Request fanout histogram
system.l2bus.snoop_fanout::overflows                0      0.00%    100.00% # Request fanout histogram
system.l2bus.snoop_fanout::min_value                0                       # Request fanout histogram
system.l2bus.snoop_fanout::max_value                1                       # Request fanout histogram
system.l2bus.snoop_fanout::total                 5078                       # Request fanout histogram
system.l2bus.power_state.pwrStateResidencyTicks::UNDEFINED   1052655000                       # Cumulative time (in ticks) in various power states
system.l2bus.reqLayer0.occupancy              9668000                       # Layer occupancy (ticks)
system.l2bus.reqLayer0.utilization                0.9                       # Layer utilization (%)
system.l2bus.respLayer0.occupancy             5961000                       # Layer occupancy (ticks)
system.l2bus.respLayer0.utilization               0.6                       # Layer utilization (%)
system.l2bus.respLayer1.occupancy             8748000                       # Layer occupancy (ticks)
system.l2bus.respLayer1.utilization               0.8                       # Layer utilization (%)
system.l2cache.demand_hits::.cpu.inst             951                       # number of demand (read+write) hits
system.l2cache.demand_hits::.cpu.data             335                       # number of demand (read+write) hits
system.l2cache.demand_hits::total                1286                       # number of demand (read+write) hits
system.l2cache.overall_hits::.cpu.inst            951                       # number of overall hits
system.l2cache.overall_hits::.cpu.data            335                       # number of overall hits
system.l2cache.overall_hits::total               1286                       # number of overall hits
system.l2cache.demand_misses::.cpu.inst          1036                       # number of demand (read+write) misses
system.l2cache.demand_misses::.cpu.data          2581                       # number of demand (read+write) misses
system.l2cache.demand_misses::total              3617                       # number of demand (read+write) misses
system.l2cache.overall_misses::.cpu.inst         1036                       # number of overall misses
system.l2cache.overall_misses::.cpu.data         2581                       # number of overall misses
system.l2cache.overall_misses::total             3617                       # number of overall misses
system.l2cache.demand_miss_latency::.cpu.inst    101543000                       # number of demand (read+write) miss cycles
system.l2cache.demand_miss_latency::.cpu.data    252741000                       # number of demand (read+write) miss cycles
system.l2cache.demand_miss_latency::total    354284000                       # number of demand (read+write) miss cycles
system.l2cache.overall_miss_latency::.cpu.inst    101543000                       # number of overall miss cycles
system.l2cache.overall_miss_latency::.cpu.data    252741000                       # number of overall miss cycles
system.l2cache.overall_miss_latency::total    354284000                       # number of overall miss cycles
system.l2cache.demand_accesses::.cpu.inst         1987                       # number of demand (read+write) accesses
system.l2cache.demand_accesses::.cpu.data         2916                       # number of demand (read+write) accesses
system.l2cache.demand_accesses::total            4903                       # number of demand (read+write) accesses
system.l2cache.overall_accesses::.cpu.inst         1987                       # number of overall (read+write) accesses
system.l2cache.overall_accesses::.cpu.data         2916                       # number of overall (read+write) accesses
system.l2cache.overall_accesses::total           4903                       # number of overall (read+write) accesses
system.l2cache.demand_miss_rate::.cpu.inst     0.521389                       # miss rate for demand accesses
system.l2cache.demand_miss_rate::.cpu.data     0.885117                       # miss rate for demand accesses
system.l2cache.demand_miss_rate::total       0.737712                       # miss rate for demand accesses
system.l2cache.overall_miss_rate::.cpu.inst     0.521389                       # miss rate for overall accesses
system.l2cache.overall_miss_rate::.cpu.data     0.885117                       # miss rate for overall accesses
system.l2cache.overall_miss_rate::total      0.737712                       # miss rate for overall accesses
system.l2cache.demand_avg_miss_latency::.cpu.inst 98014.478764                       # average overall miss latency
system.l2cache.demand_avg_miss_latency::.cpu.data 97923.672995                       # average overall miss latency
system.l2cache.demand_avg_miss_latency::total 97949.682057                       # average overall miss latency
system.l2cache.overall_avg_miss_latency::.cpu.inst 98014.478764                       # average overall miss latency
system.l2cache.overall_avg_miss_latency::.cpu.data 97923.672995                       # average overall miss latency
system.l2cache.overall_avg_miss_latency::total 97949.682057                       # average overall miss latency
system.l2cache.blocked_cycles::no_mshrs             0                       # number of cycles access was blocked
system.l2cache.blocked_cycles::no_targets            0                       # number of cycles access was blocked
system.l2cache.blocked::no_mshrs                    0                       # number of cycles access was blocked
system.l2cache.blocked::no_targets                  0                       # number of cycles access was blocked
system.l2cache.avg_blocked_cycles::no_mshrs          nan                       # average number of cycles each access was blocked
system.l2cache.avg_blocked_cycles::no_targets          nan                       # average number of cycles each access was blocked
system.l2cache.demand_mshr_misses::.cpu.inst         1036                       # number of demand (read+write) MSHR misses
system.l2cache.demand_mshr_misses::.cpu.data         2581                       # number of demand (read+write) MSHR misses
system.l2cache.demand_mshr_misses::total         3617                       # number of demand (read+write) MSHR misses
system.l2cache.overall_mshr_misses::.cpu.inst         1036                       # number of overall MSHR misses
system.l2cache.overall_mshr_misses::.cpu.data         2581                       # number of overall MSHR misses
system.l2cache.overall_mshr_misses::total         3617                       # number of overall MSHR misses
system.l2cache.demand_mshr_miss_latency::.cpu.inst     80823000                       # number of demand (read+write) MSHR miss cycles
system.l2cache.demand_mshr_miss_latency::.cpu.data    201121000                       # number of demand (read+write) MSHR miss cycles
system.l2cache.demand_mshr_miss_latency::total    281944000                       # number of demand (read+write) MSHR miss cycles
system.l2cache.overall_mshr_miss_latency::.cpu.inst     80823000                       # number of overall MSHR miss cycles
system.l2cache.overall_mshr_miss_latency::.cpu.data    201121000                       # number of overall MSHR miss cycles
system.l2cache.overall_mshr_miss_latency::total    281944000                       # number of overall MSHR miss cycles
system.l2cache.demand_mshr_miss_rate::.cpu.inst     0.521389                       # mshr miss rate for demand accesses
system.l2cache.demand_mshr_miss_rate::.cpu.data     0.885117                       # mshr miss rate for demand accesses
system.l2cache.demand_mshr_miss_rate::total     0.737712                       # mshr miss rate for demand accesses
system.l2cache.overall_mshr_miss_rate::.cpu.inst     0.521389                       # mshr miss rate for overall accesses
system.l2cache.overall_mshr_miss_rate::.cpu.data     0.885117                       # mshr miss rate for overall accesses
system.l2cache.overall_mshr_miss_rate::total     0.737712                       # mshr miss rate for overall accesses
system.l2cache.demand_avg_mshr_miss_latency::.cpu.inst 78014.478764                       # average overall mshr miss latency
system.l2cache.demand_avg_mshr_miss_latency::.cpu.data 77923.672995                       # average overall mshr miss latency
system.l2cache.demand_avg_mshr_miss_latency::total 77949.682057                       # average overall mshr miss latency
system.l2cache.overall_avg_mshr_miss_latency::.cpu.inst 78014.478764                       # average overall mshr miss latency
system.l2cache.overall_avg_mshr_miss_latency::.cpu.data 77923.672995                       # average overall mshr miss latency
system.l2cache.overall_avg_mshr_miss_latency::total 77949.682057                       # average overall mshr miss latency
system.l2cache.replacements                         0                       # number of replacements
system.l2cache.WritebackDirty_hits::.writebacks          571                       # number of WritebackDirty hits
system.l2cache.WritebackDirty_hits::total          571                       # number of WritebackDirty hits
system.l2cache.WritebackDirty_accesses::.writebacks          571                       # number of WritebackDirty accesses(hits+misses)
system.l2cache.WritebackDirty_accesses::total          571                       # number of WritebackDirty accesses(hits+misses)
system.l2cache.CleanEvict_mshr_misses::.writebacks          114                       # number of CleanEvict MSHR misses
system.l2cache.CleanEvict_mshr_misses::total          114                       # number of CleanEvict MSHR misses
system.l2cache.CleanEvict_mshr_miss_rate::.writebacks          inf                       # mshr miss rate for CleanEvict accesses
system.l2cache.CleanEvict_mshr_miss_rate::total          inf                       # mshr miss rate for CleanEvict accesses
system.l2cache.ReadExReq_hits::.cpu.data           70                       # number of ReadExReq hits
system.l2cache.ReadExReq_hits::total               70                       # number of ReadExReq hits
system.l2cache.ReadExReq_misses::.cpu.data          558                       # number of ReadExReq misses
system.l2cache.ReadExReq_misses::total            558                       # number of ReadExReq misses
system.l2cache.ReadExReq_miss_latency::.cpu.data     53960000                       # number of ReadExReq miss cycles
system.l2cache.ReadExReq_miss_latency::total     53960000                       # number of ReadExReq miss cycles
system.l2cache.ReadExReq_accesses::.cpu.data          628                       # number of ReadExReq accesses(hits+misses)
system.l2cache.ReadExReq_accesses::total          628                       # number of ReadExReq accesses(hits+misses)
system.l2cache.ReadExReq_miss_rate::.cpu.data     0.888535                       # miss rate for ReadExReq accesses
system.l2cache.ReadExReq_miss_rate::total     0.888535                       # miss rate for ReadExReq accesses
system.l2cache.ReadExReq_avg_miss_latency::.cpu.data 96702.508961                       # average ReadExReq miss latency
system.l2cache.ReadExReq_avg_miss_latency::total 96702.508961                       # average ReadExReq miss latency
system.l2cache.ReadExReq_mshr_misses::.cpu.data          558                       # number of ReadExReq MSHR misses
system.l2cache.ReadExReq_mshr_misses::total          558                       # number of ReadExReq MSHR misses
system.l2cache.ReadExReq_mshr_miss_latency::.cpu.data     42800000                       # number of ReadExReq MSHR miss cycles
system.l2cache.ReadExReq_mshr_miss_latency::total     42800000                       # number of ReadExReq MSHR miss cycles
system.l2cache.ReadExReq_mshr_miss_rate::.cpu.data     0.888535                       # mshr miss rate for ReadExReq accesses
system.l2cache.ReadExReq_mshr_miss_rate::total     0.888535                       # mshr miss rate for ReadExReq accesses
system.l2cache.ReadExReq_avg_mshr_miss_latency::.cpu.data 76702.508961                       # average ReadExReq mshr miss latency
system.l2cache.ReadExReq_avg_mshr_miss_latency::total 76702.508961                       # average ReadExReq mshr miss latency
system.l2cache.ReadSharedReq_hits::.cpu.inst          951                       # number of ReadSharedReq hits
system.l2cache.ReadSharedReq_hits::.cpu.data          265                       # number of ReadSharedReq hits
system.l2cache.ReadSharedReq_hits::total         1216                       # number of ReadSharedReq hits
system.l2cache.ReadSharedReq_misses::.cpu.inst         1036                       # number of ReadSharedReq misses
system.l2cache.ReadSharedReq_misses::.cpu.data         2023                       # number of ReadSharedReq misses
system.l2cache.ReadSharedReq_misses::total         3059                       # number of ReadSharedReq misses
system.l2cache.ReadSharedReq_miss_latency::.cpu.inst    101543000                       # number of ReadSharedReq miss cycles
system.l2cache.ReadSharedReq_miss_latency::.cpu.data    198781000                       # number of ReadSharedReq miss cycles
system.l2cache.ReadSharedReq_miss_latency::total    300324000                       # number of ReadSharedReq miss cycles
system.l2cache.ReadSharedReq_accesses::.cpu.inst         1987                       # number of ReadSharedReq accesses(hits+misses)
system.l2cache.ReadSharedReq_accesses::.cpu.data         2288                       # number of ReadSharedReq accesses(hits+misses)
system.l2cache.ReadSharedReq_accesses::total         4275                       # number of ReadSharedReq accesses(hits+misses)
system.l2cache.ReadSharedReq_miss_rate::.cpu.inst     0.521389                       # miss rate for ReadSharedReq accesses
system.l2cache.ReadSharedReq_miss_rate::.cpu.data     0.884178                       # miss rate for ReadSharedReq accesses
system.l2cache.ReadSharedReq_miss_rate::total     0.715556                       # miss rate for ReadSharedReq accesses
system.l2cache.ReadSharedReq_avg_miss_latency::.cpu.inst 98014.478764                       # average ReadSharedReq miss latency
system.l2cache.ReadSharedReq_avg_miss_latency::.cpu.data 98260.504202                       # average ReadSharedReq miss latency
system.l2cache.ReadSharedReq_avg_miss_latency::total 98177.182086                       # average ReadSharedReq miss latency
system.l2cache.ReadSharedReq_mshr_misses::.cpu.inst         1036                       # number of ReadSharedReq MSHR misses
system.l2cache.ReadSharedReq_mshr_misses::.cpu.data         2023                       # number of ReadSharedReq MSHR misses
system.l2cache.ReadSharedReq_mshr_misses::total         3059                       # number of ReadSharedReq MSHR misses
system.l2cache.ReadSharedReq_mshr_miss_latency::.cpu.inst     80823000                       # number of ReadSharedReq MSHR miss cycles
system.l2cache.ReadSharedReq_mshr_miss_latency::.cpu.data    158321000                       # number of ReadSharedReq MSHR miss cycles
system.l2cache.ReadSharedReq_mshr_miss_latency::total    239144000                       # number of ReadSharedReq MSHR miss cycles
system.l2cache.ReadSharedReq_mshr_miss_rate::.cpu.inst     0.521389                       # mshr miss rate for ReadSharedReq accesses
system.l2cache.ReadSharedReq_mshr_miss_rate::.cpu.data     0.884178                       # mshr miss rate for ReadSharedReq accesses
system.l2cache.ReadSharedReq_mshr_miss_rate::total     0.715556                       # mshr miss rate for ReadSharedReq accesses
system.l2cache.ReadSharedReq_avg_mshr_miss_latency::.cpu.inst 78014.478764                       # average ReadSharedReq mshr miss latency
system.l2cache.ReadSharedReq_avg_mshr_miss_latency::.cpu.data 78260.504202                       # average ReadSharedReq mshr miss latency
system.l2cache.ReadSharedReq_avg_mshr_miss_latency::total 78177.182086                       # average ReadSharedReq mshr miss latency
system.l2cache.power_state.pwrStateResidencyTicks::UNDEFINED   1052655000                       # Cumulative time (in ticks) in various power states
system.l2cache.replacement_policy.totalBypasses          175                       # Total number of cache bypasses
system.l2cache.replacement_policy.effectiveBypasses            0                       # Bypasses that correctly skipped non-reused blocks
system.l2cache.replacement_policy.ineffectiveBypasses           45                       # Bypasses that incorrectly skipped requested blocks
system.l2cache.replacement_policy.virtualEffectiveBypasses            0                       # Virtual bypasses correctly predicting non-reused blocks
system.l2cache.replacement_policy.virtualIneffectiveBypasses          131                       # Virtual bypasses incorrectly predicting requested blocks
system.l2cache.tags.tagsinuse             2116.893645                       # Cycle average of tags in use
system.l2cache.tags.total_refs                   8237                       # Total number of references to valid blocks.
system.l2cache.tags.sampled_refs                 3490                       # Sample count of references to valid blocks.
system.l2cache.tags.avg_refs                 2.360172                       # Average number of references to valid blocks.
system.l2cache.tags.warmup_cycle                86000                       # Cycle when the warmup percentage was hit.
system.l2cache.tags.occ_blocks::.writebacks    30.324862                       # Average occupied blocks per requestor
system.l2cache.tags.occ_blocks::.cpu.inst   622.154258                       # Average occupied blocks per requestor
system.l2cache.tags.occ_blocks::.cpu.data  1464.414524                       # Average occupied blocks per requestor
system.l2cache.tags.occ_percent::.writebacks     0.003702                       # Average percentage of cache occupancy
system.l2cache.tags.occ_percent::.cpu.inst     0.075947                       # Average percentage of cache occupancy
system.l2cache.tags.occ_percent::.cpu.data     0.178762                       # Average percentage of cache occupancy
system.l2cache.tags.occ_percent::total       0.258410                       # Average percentage of cache occupancy
system.l2cache.tags.occ_task_id_blocks::1024         3490                       # Occupied blocks per task id
system.l2cache.tags.age_task_id_blocks_1024::0           56                       # Occupied blocks per task id
system.l2cache.tags.age_task_id_blocks_1024::1           17                       # Occupied blocks per task id
system.l2cache.tags.age_task_id_blocks_1024::2         3188                       # Occupied blocks per task id
system.l2cache.tags.age_task_id_blocks_1024::3          229                       # Occupied blocks per task id
system.l2cache.tags.occ_task_id_percent::1024     0.426025                       # Percentage of cache occupancy per task id
system.l2cache.tags.tag_accesses                71698                       # Number of tag accesses
system.l2cache.tags.data_accesses               71698                       # Number of data accesses
system.l2cache.tags.power_state.pwrStateResidencyTicks::UNDEFINED   1052655000                       # Cumulative time (in ticks) in various power states
system.mem_ctrl.avgPriority_.cpu.inst::samples      1036.00                       # Average QoS priority value for accepted requests
system.mem_ctrl.avgPriority_.cpu.data::samples      2581.00                       # Average QoS priority value for accepted requests
system.mem_ctrl.priorityMinLatency       0.000000018750                       # per QoS priority minimum request to response latency (s)
system.mem_ctrl.priorityMaxLatency       0.000000577000                       # per QoS priority maximum request to response latency (s)
system.mem_ctrl.numReadWriteTurnArounds             0                       # Number of turnarounds from READ to WRITE
system.mem_ctrl.numWriteReadTurnArounds             0                       # Number of turnarounds from WRITE to READ
system.mem_ctrl.numStayReadState                 7504                       # Number of times bus staying in READ state
system.mem_ctrl.numStayWriteState                   0                       # Number of times bus staying in WRITE state
system.mem_ctrl.readReqs                         3617                       # Number of read requests accepted
system.mem_ctrl.writeReqs                           0                       # Number of write requests accepted
system.mem_ctrl.readBursts                       3617                       # Number of controller read bursts, including those serviced by the write queue
system.mem_ctrl.writeBursts                         0                       # Number of controller write bursts, including those merged in the write queue
system.mem_ctrl.servicedByWrQ                       0                       # Number of controller read bursts serviced by the write queue
system.mem_ctrl.mergedWrBursts                      0                       # Number of controller write bursts merged with an existing one
system.mem_ctrl.neitherReadNorWriteReqs             0                       # Number of requests that are neither read nor write
system.mem_ctrl.avgRdQLen                        1.00                       # Average read queue length when enqueuing
system.mem_ctrl.avgWrQLen                        0.00                       # Average write queue length when enqueuing
system.mem_ctrl.numRdRetry                          0                       # Number of times read queue was full causing retry
system.mem_ctrl.numWrRetry                          0                       # Number of times write queue was full causing retry
system.mem_ctrl.readPktSize::0                      0                       # Read request sizes (log2)
system.mem_ctrl.readPktSize::1                      0                       # Read request sizes (log2)
system.mem_ctrl.readPktSize::2                      0                       # Read request sizes (log2)
system.mem_ctrl.readPktSize::3                      0                       # Read request sizes (log2)
system.mem_ctrl.readPktSize::4                      0                       # Read request sizes (log2)
system.mem_ctrl.readPktSize::5                      0                       # Read request sizes (log2)
system.mem_ctrl.readPktSize::6                   3617                       # Read request sizes (log2)
system.mem_ctrl.writePktSize::0                     0                       # Write request sizes (log2)
system.mem_ctrl.writePktSize::1                     0                       # Write request sizes (log2)
system.mem_ctrl.writePktSize::2                     0                       # Write request sizes (log2)
system.mem_ctrl.writePktSize::3                     0                       # Write request sizes (log2)
system.mem_ctrl.writePktSize::4                     0                       # Write request sizes (log2)
system.mem_ctrl.writePktSize::5                     0                       # Write request sizes (log2)
system.mem_ctrl.writePktSize::6                     0                       # Write request sizes (log2)
system.mem_ctrl.rdQLenPdf::0                     3616                       # What read queue length does an incoming req see
system.mem_ctrl.rdQLenPdf::1                        1                       # What read queue length does an incoming req see
system.mem_ctrl.rdQLenPdf::2                        0                       # What read queue length does an incoming req see
system.mem_ctrl.rdQLenPdf::3                        0                       # What read queue length does an incoming req see
system.mem_ctrl.rdQLenPdf::4                        0                       # What read queue length does an incoming req see
system.mem_ctrl.rdQLenPdf::5                        0                       # What read queue length does an incoming req see
system.mem_ctrl.rdQLenPdf::6                        0                       # What read queue length does an incoming req see
system.mem_ctrl.rdQLenPdf::7                        0                       # What read queue length does an incoming req see
system.mem_ctrl.rdQLenPdf::8                        0                       # What read queue length does an incoming req see
system.mem_ctrl.rdQLenPdf::9                        0                       # What read queue length does an incoming req see
system.mem_ctrl.rdQLenPdf::10                       0                       # What read queue length does an incoming req see
system.mem_ctrl.rdQLenPdf::11                       0                       # What read queue length does an incoming req see
system.mem_ctrl.rdQLenPdf::12                       0                       # What read queue length does an incoming req see
system.mem_ctrl.rdQLenPdf::13                       0                       # What read queue length does an incoming req see
system.mem_ctrl.rdQLenPdf::14                       0                       # What read queue length does an incoming req see
system.mem_ctrl.rdQLenPdf::15                       0                       # What read queue length does an incoming req see
system.mem_ctrl.rdQLenPdf::16                       0                       # What read queue length does an incoming req see
system.mem_ctrl.rdQLenPdf::17                       0                       # What read queue length does an incoming req see
system.mem_ctrl.rdQLenPdf::18                       0                       # What read queue length does an incoming req see
system.mem_ctrl.rdQLenPdf::19                       0                       # What read queue length does an incoming req see
system.mem_ctrl.rdQLenPdf::20                       0                       # What read queue length does an incoming req see
system.mem_ctrl.rdQLenPdf::21                       0                       # What read queue length does an incoming req see
system.mem_ctrl.rdQLenPdf::22                       0                       # What read queue length does an incoming req see
system.mem_ctrl.rdQLenPdf::23                       0                       # What read queue length does an incoming req see
system.mem_ctrl.rdQLenPdf::24                       0                       # What read queue length does an incoming req see
system.mem_ctrl.rdQLenPdf::25                       0                       # What read queue length does an incoming req see
system.mem_ctrl.rdQLenPdf::26                       0                       # What read queue length does an incoming req see
system.mem_ctrl.rdQLenPdf::27                       0                       # What read queue length does an incoming req see
system.mem_ctrl.rdQLenPdf::28                       0                       # What read queue length does an incoming req see
system.mem_ctrl.rdQLenPdf::29                       0                       # What read queue length does an incoming req see
system.mem_ctrl.rdQLenPdf::30                       0                       # What read queue length does an incoming req see
system.mem_ctrl.rdQLenPdf::31                       0                       # What read queue length does an incoming req see
system.mem_ctrl.wrQLenPdf::0                        0                       # What write queue length does an incoming req see
system.mem_ctrl.wrQLenPdf::1                        0                       # What write queue length does an incoming req see
system.mem_ctrl.wrQLenPdf::2                        0                       # What write queue length does an incoming req see
system.mem_ctrl.wrQLenPdf::3                        0                       # What write queue length does an incoming req see
system.mem_ctrl.wrQLenPdf::4                        0                       # What write queue length does an incoming req see
system.mem_ctrl.wrQLenPdf::5                        0                       # What write queue length does an incoming req see
system.mem_ctrl.wrQLenPdf::6                        0                       # What write queue length does an incoming req see
system.mem_ctrl.wrQLenPdf::7                        0                       # What write queue length does an incoming req see
system.mem_ctrl.wrQLenPdf::8                        0                       # What write queue length does an incoming req see
system.mem_ctrl.wrQLenPdf::9                        0                       # What write queue length does an incoming req see
system.mem_ctrl.wrQLenPdf::10                       0                       # What write queue length does an incoming req see
system.mem_ctrl.wrQLenPdf::11                       0                       # What write queue length does an incoming req see
system.mem_ctrl.wrQLenPdf::12                       0                       # What write queue length does an incoming req see
system.mem_ctrl.wrQLenPdf::13                       0                       # What write queue length does an incoming req see
system.mem_ctrl.wrQLenPdf::14                       0                       # What write queue length does an incoming req see
system.mem_ctrl.wrQLenPdf::15                       0                       # What write queue length does an incoming req see
system.mem_ctrl.wrQLenPdf::16                       0                       # What write queue length does an incoming req see
system.mem_ctrl.wrQLenPdf::17                       0                       # What write queue length does an incoming req see
system.mem_ctrl.wrQLenPdf::18                       0                       # What write queue length does an incoming req see
system.mem_ctrl.wrQLenPdf::19                       0                       # What write queue length does an incoming req see
system.mem_ctrl.wrQLenPdf::20                       0                       # What write queue length does an incoming req see
system.mem_ctrl.wrQLenPdf::21                       0                       # What write queue length does an incoming req see
system.mem_ctrl.wrQLenPdf::22                       0                       # What write queue length does an incoming req see
system.mem_ctrl.wrQLenPdf::23                       0                       # What write queue length does an incoming req see
system.mem_ctrl.wrQLenPdf::24                       0                       # What write queue length does an incoming req see
system.mem_ctrl.wrQLenPdf::25                       0                       # What write queue length does an incoming req see
system.mem_ctrl.wrQLenPdf::26                       0                       # What write queue length does an incoming req see
system.mem_ctrl.wrQLenPdf::27                       0                       # What write queue length does an incoming req see
system.mem_ctrl.wrQLenPdf::28                       0                       # What write queue length does an incoming req see
system.mem_ctrl.wrQLenPdf::29                       0                       # What write queue length does an incoming req see
system.mem_ctrl.wrQLenPdf::30                       0                       # What write queue length does an incoming req see
system.mem_ctrl.wrQLenPdf::31                       0                       # What write queue length does an incoming req see
system.mem_ctrl.wrQLenPdf::32                       0                       # What write queue length does an incoming req see
system.mem_ctrl.wrQLenPdf::33                       0                       # What write queue length does an incoming req see
system.mem_ctrl.wrQLenPdf::34                       0                       # What write queue length does an incoming req see
system.mem_ctrl.wrQLenPdf::35                       0                       # What write queue length does an incoming req see
system.mem_ctrl.wrQLenPdf::36                       0                       # What write queue length does an incoming req see
system.mem_ctrl.wrQLenPdf::37                       0                       # What write queue length does an incoming req see
system.mem_ctrl.wrQLenPdf::38                       0                       # What write queue length does an incoming req see
system.mem_ctrl.wrQLenPdf::39                       0                       # What write queue length does an incoming req see
system.mem_ctrl.wrQLenPdf::40                       0                       # What write queue length does an incoming req see
system.mem_ctrl.wrQLenPdf::41                       0                       # What write queue length does an incoming req see
system.mem_ctrl.wrQLenPdf::42                       0                       # What write queue length does an incoming req see
system.mem_ctrl.wrQLenPdf::43                       0                       # What write queue length does an incoming req see
system.mem_ctrl.wrQLenPdf::44                       0                       # What write queue length does an incoming req see
system.mem_ctrl.wrQLenPdf::45                       0                       # What write queue length does an incoming req see
system.mem_ctrl.wrQLenPdf::46                       0                       # What write queue length does an incoming req see
system.mem_ctrl.wrQLenPdf::47                       0                       # What write queue length does an incoming req see
system.mem_ctrl.wrQLenPdf::48                       0                       # What write queue length does an incoming req see
system.mem_ctrl.wrQLenPdf::49                       0                       # What write queue length does an incoming req see
system.mem_ctrl.wrQLenPdf::50                       0                       # What write queue length does an incoming req see
system.mem_ctrl.wrQLenPdf::51                       0                       # What write queue length does an incoming req see
system.mem_ctrl.wrQLenPdf::52                       0                       # What write queue length does an incoming req see
system.mem_ctrl.wrQLenPdf::53                       0                       # What write queue length does an incoming req see
system.mem_ctrl.wrQLenPdf::54                       0                       # What write queue length does an incoming req see
system.mem_ctrl.wrQLenPdf::55                       0                       # What write queue length does an incoming req see
system.mem_ctrl.wrQLenPdf::56                       0                       # What write queue length does an incoming req see
system.mem_ctrl.wrQLenPdf::57                       0                       # What write queue length does an incoming req see
system.mem_ctrl.wrQLenPdf::58                       0                       # What write queue length does an incoming req see
system.mem_ctrl.wrQLenPdf::59                       0                       # What write queue length does an incoming req see
system.mem_ctrl.wrQLenPdf::60                       0                       # What write queue length does an incoming req see
system.mem_ctrl.wrQLenPdf::61                       0                       # What write queue length does an incoming req see
system.mem_ctrl.wrQLenPdf::62                       0                       # What write queue length does an incoming req see
system.mem_ctrl.wrQLenPdf::63                       0                       # What write queue length does an incoming req see
system.mem_ctrl.bytesReadWrQ                        0                       # Total number of bytes read from write queue
system.mem_ctrl.bytesReadSys                   231488                       # Total read bytes from the system interface side
system.mem_ctrl.bytesWrittenSys                     0                       # Total written bytes from the system interface side
system.mem_ctrl.avgRdBWSys                     219.91                       # Average system read bandwidth in MiByte/s
system.mem_ctrl.avgWrBWSys                       0.00                       # Average system write bandwidth in MiByte/s
system.mem_ctrl.totGap                     1052556000                       # Total gap between requests
system.mem_ctrl.avgGap                      291002.49                       # Average gap between requests
system.mem_ctrl.requestorReadBytes::.cpu.inst        66304                       # Per-requestor bytes read from memory
system.mem_ctrl.requestorReadBytes::.cpu.data       165184                       # Per-requestor bytes read from memory
system.mem_ctrl.requestorReadRate::.cpu.inst 62987398.530382700264                       # Per-requestor bytes read from memory rate (Bytes/sec)
system.mem_ctrl.requestorReadRate::.cpu.data 156921308.500885844231                       # Per-requestor bytes read from memory rate (Bytes/sec)
system.mem_ctrl.requestorReadAccesses::.cpu.inst         1036                       # Per-requestor read serviced memory accesses
system.mem_ctrl.requestorReadAccesses::.cpu.data         2581                       # Per-requestor read serviced memory accesses
system.mem_ctrl.requestorReadTotalLat::.cpu.inst     27657000                       # Per-requestor read total memory access latency
system.mem_ctrl.requestorReadTotalLat::.cpu.data     68697750                       # Per-requestor read total memory access latency
system.mem_ctrl.requestorReadAvgLat::.cpu.inst     26695.95                       # Per-requestor read average memory access latency
system.mem_ctrl.requestorReadAvgLat::.cpu.data     26616.72                       # Per-requestor read average memory access latency
system.mem_ctrl.dram.bytes_read::.cpu.inst        66304                       # Number of bytes read from this memory
system.mem_ctrl.dram.bytes_read::.cpu.data       165184                       # Number of bytes read from this memory
system.mem_ctrl.dram.bytes_read::total         231488                       # Number of bytes read from this memory
system.mem_ctrl.dram.bytes_inst_read::.cpu.inst        66304                       # Number of instructions bytes read from this memory
system.mem_ctrl.dram.bytes_inst_read::total        66304                       # Number of instructions bytes read from this memory
system.mem_ctrl.dram.num_reads::.cpu.inst         1036                       # Number of read requests responded to by this memory
system.mem_ctrl.dram.num_reads::.cpu.data         2581                       # Number of read requests responded to by this memory
system.mem_ctrl.dram.num_reads::total            3617                       # Number of read requests responded to by this memory
system.mem_ctrl.dram.bw_read::.cpu.inst      62987399                       # Total read bandwidth from this memory (bytes/s)
system.mem_ctrl.dram.bw_read::.cpu.data     156921309                       # Total read bandwidth from this memory (bytes/s)
system.mem_ctrl.dram.bw_read::total         219908707                       # Total read bandwidth from this memory (bytes/s)
system.mem_ctrl.dram.bw_inst_read::.cpu.inst     62987399                       # Instruction read bandwidth from this memory (bytes/s)
system.mem_ctrl.dram.bw_inst_read::total     62987399                       # Instruction read bandwidth from this memory (bytes/s)
system.mem_ctrl.dram.bw_total::.cpu.inst     62987399                       # Total bandwidth to/from this memory (bytes/s)
system.mem_ctrl.dram.bw_total::.cpu.data    156921309                       # Total bandwidth to/from this memory (bytes/s)
system.mem_ctrl.dram.bw_total::total        219908707                       # Total bandwidth to/from this memory (bytes/s)
system.mem_ctrl.dram.readBursts                  3617                       # Number of DRAM read bursts
system.mem_ctrl.dram.writeBursts                    0                       # Number of DRAM write bursts
system.mem_ctrl.dram.perBankRdBursts::0           290                       # Per bank write bursts
system.mem_ctrl.dram.perBankRdBursts::1           345                       # Per bank write bursts
system.mem_ctrl.dram.perBankRdBursts::2           237                       # Per bank write bursts
system.mem_ctrl.dram.perBankRdBursts::3           293                       # Per bank write bursts
system.mem_ctrl.dram.perBankRdBursts::4           207                       # Per bank write bursts
system.mem_ctrl.dram.perBankRdBursts::5           223                       # Per bank write bursts
system.mem_ctrl.dram.perBankRdBursts::6           193                       # Per bank write bursts
system.mem_ctrl.dram.perBankRdBursts::7           185                       # Per bank write bursts
system.mem_ctrl.dram.perBankRdBursts::8           246                       # Per bank write bursts
system.mem_ctrl.dram.perBankRdBursts::9           301                       # Per bank write bursts
system.mem_ctrl.dram.perBankRdBursts::10          221                       # Per bank write bursts
system.mem_ctrl.dram.perBankRdBursts::11          172                       # Per bank write bursts
system.mem_ctrl.dram.perBankRdBursts::12          115                       # Per bank write bursts
system.mem_ctrl.dram.perBankRdBursts::13          149                       # Per bank write bursts
system.mem_ctrl.dram.perBankRdBursts::14          248                       # Per bank write bursts
system.mem_ctrl.dram.perBankRdBursts::15          192                       # Per bank write bursts
system.mem_ctrl.dram.perBankWrBursts::0             0                       # Per bank write bursts
system.mem_ctrl.dram.perBankWrBursts::1             0                       # Per bank write bursts
system.mem_ctrl.dram.perBankWrBursts::2             0                       # Per bank write bursts
system.mem_ctrl.dram.perBankWrBursts::3             0                       # Per bank write bursts
system.mem_ctrl.dram.perBankWrBursts::4             0                       # Per bank write bursts
system.mem_ctrl.dram.perBankWrBursts::5             0                       # Per bank write bursts
system.mem_ctrl.dram.perBankWrBursts::6             0                       # Per bank write bursts
system.mem_ctrl.dram.perBankWrBursts::7             0                       # Per bank write bursts
system.mem_ctrl.dram.perBankWrBursts::8             0                       # Per bank write bursts
system.mem_ctrl.dram.perBankWrBursts::9             0                       # Per bank write bursts
system.mem_ctrl.dram.perBankWrBursts::10            0                       # Per bank write bursts
system.mem_ctrl.dram.perBankWrBursts::11            0                       # Per bank write bursts
system.mem_ctrl.dram.perBankWrBursts::12            0                       # Per bank write bursts
system.mem_ctrl.dram.perBankWrBursts::13            0                       # Per bank write bursts
system.mem_ctrl.dram.perBankWrBursts::14            0                       # Per bank write bursts
system.mem_ctrl.dram.perBankWrBursts::15            0                       # Per bank write bursts
system.mem_ctrl.dram.totQLat                 28536000                       # Total ticks spent queuing
system.mem_ctrl.dram.totBusLat               18085000                       # Total ticks spent in databus transfers
system.mem_ctrl.dram.totMemAccLat            96354750                       # Total ticks spent from burst creation until serviced by the DRAM
system.mem_ctrl.dram.avgQLat                  7889.41                       # Average queueing delay per DRAM burst
system.mem_ctrl.dram.avgBusLat                5000.00                       # Average bus latency per DRAM burst
system.mem_ctrl.dram.avgMemAccLat            26639.41                       # Average memory access latency per DRAM burst
system.mem_ctrl.dram.readRowHits                 2832                       # Number of row buffer hits during reads
system.mem_ctrl.dram.writeRowHits                   0                       # Number of row buffer hits during writes
system.mem_ctrl.dram.readRowHitRate             78.30                       # Row buffer hit rate for reads
system.mem_ctrl.dram.writeRowHitRate              nan                       # Row buffer hit rate for writes
system.mem_ctrl.dram.bytesPerActivate::samples          782                       # Bytes accessed per row activation
system.mem_ctrl.dram.bytesPerActivate::mean   295.365729                       # Bytes accessed per row activation
system.mem_ctrl.dram.bytesPerActivate::gmean   183.567266                       # Bytes accessed per row activation
system.mem_ctrl.dram.bytesPerActivate::stdev   307.105252                       # Bytes accessed per row activation
system.mem_ctrl.dram.bytesPerActivate::0-127          248     31.71%     31.71% # Bytes accessed per row activation
system.mem_ctrl.dram.bytesPerActivate::128-255          237     30.31%     62.02% # Bytes accessed per row activation
system.mem_ctrl.dram.bytesPerActivate::256-383           90     11.51%     73.53% # Bytes accessed per row activation
system.mem_ctrl.dram.bytesPerActivate::384-511           47      6.01%     79.54% # Bytes accessed per row activation
system.mem_ctrl.dram.bytesPerActivate::512-639           35      4.48%     84.02% # Bytes accessed per row activation
system.mem_ctrl.dram.bytesPerActivate::640-767           19      2.43%     86.45% # Bytes accessed per row activation
system.mem_ctrl.dram.bytesPerActivate::768-895           19      2.43%     88.87% # Bytes accessed per row activation
system.mem_ctrl.dram.bytesPerActivate::896-1023           16      2.05%     90.92% # Bytes accessed per row activation
system.mem_ctrl.dram.bytesPerActivate::1024-1151           71      9.08%    100.00% # Bytes accessed per row activation
system.mem_ctrl.dram.bytesPerActivate::total          782                       # Bytes accessed per row activation
system.mem_ctrl.dram.bytesRead                 231488                       # Total number of bytes read from DRAM
system.mem_ctrl.dram.bytesWritten                   0                       # Total number of bytes written to DRAM
system.mem_ctrl.dram.avgRdBW               219.908707                       # Average DRAM read bandwidth in MiBytes/s
system.mem_ctrl.dram.avgWrBW                        0                       # Average DRAM write bandwidth in MiBytes/s
system.mem_ctrl.dram.peakBW                  12800.00                       # Theoretical peak bandwidth in MiByte/s
system.mem_ctrl.dram.busUtil                     1.72                       # Data bus utilization in percentage
system.mem_ctrl.dram.busUtilRead                 1.72                       # Data bus utilization in percentage for reads
system.mem_ctrl.dram.busUtilWrite                0.00                       # Data bus utilization in percentage for writes
system.mem_ctrl.dram.pageHitRate                78.30                       # Row buffer hit rate, read and write combined
system.mem_ctrl.dram.power_state.pwrStateResidencyTicks::UNDEFINED   1052655000                       # Cumulative time (in ticks) in various power states
system.mem_ctrl.dram.rank0.actEnergy          2648940                       # Energy for activate commands per rank (pJ)
system.mem_ctrl.dram.rank0.preEnergy          1404150                       # Energy for precharge commands per rank (pJ)
system.mem_ctrl.dram.rank0.readEnergy        14087220                       # Energy for read commands per rank (pJ)
system.mem_ctrl.dram.rank0.writeEnergy              0                       # Energy for write commands per rank (pJ)
system.mem_ctrl.dram.rank0.refreshEnergy 82976400.000000                       # Energy for refresh commands per rank (pJ)
system.mem_ctrl.dram.rank0.actBackEnergy    341576490                       # Energy for active background per rank (pJ)
system.mem_ctrl.dram.rank0.preBackEnergy    116576160                       # Energy for precharge background per rank (pJ)
system.mem_ctrl.dram.rank0.actPowerDownEnergy            0                       # Energy for active power-down per rank (pJ)
system.mem_ctrl.dram.rank0.prePowerDownEnergy            0                       # Energy for precharge power-down per rank (pJ)
system.mem_ctrl.dram.rank0.selfRefreshEnergy            0                       # Energy for self refresh per rank (pJ)
system.mem_ctrl.dram.rank0.totalEnergy      559269360                       # Total energy per rank (pJ)
system.mem_ctrl.dram.rank0.averagePower    531.294071                       # Core power per rank (mW)
system.mem_ctrl.dram.rank0.totalIdleTime            0                       # Total Idle time Per DRAM Rank
system.mem_ctrl.dram.rank0.pwrStateTime::IDLE    299895500                       # Time in different power states
system.mem_ctrl.dram.rank0.pwrStateTime::REF     35100000                       # Time in different power states
system.mem_ctrl.dram.rank0.pwrStateTime::SREF            0                       # Time in different power states
system.mem_ctrl.dram.rank0.pwrStateTime::PRE_PDN            0                       # Time in different power states
system.mem_ctrl.dram.rank0.pwrStateTime::ACT    717659500                       # Time in different power states
system.mem_ctrl.dram.rank0.pwrStateTime::ACT_PDN            0                       # Time in different power states
system.mem_ctrl.dram.rank1.actEnergy          2955960                       # Energy for activate commands per rank (pJ)
system.mem_ctrl.dram.rank1.preEnergy          1563540                       # Energy for precharge commands per rank (pJ)
system.mem_ctrl.dram.rank1.readEnergy        11738160                       # Energy for read commands per rank (pJ)
system.mem_ctrl.dram.rank1.writeEnergy              0                       # Energy for write commands per rank (pJ)
system.mem_ctrl.dram.rank1.refreshEnergy 82976400.000000                       # Energy for refresh commands per rank (pJ)
system.mem_ctrl.dram.rank1.actBackEnergy    348412500                       # Energy for active background per rank (pJ)
system.mem_ctrl.dram.rank1.preBackEnergy    110819520                       # Energy for precharge background per rank (pJ)
system.mem_ctrl.dram.rank1.actPowerDownEnergy            0                       # Energy for active power-down per rank (pJ)
system.mem_ctrl.dram.rank1.prePowerDownEnergy            0                       # Energy for precharge power-down per rank (pJ)
system.mem_ctrl.dram.rank1.selfRefreshEnergy            0                       # Energy for self refresh per rank (pJ)
system.mem_ctrl.dram.rank1.totalEnergy      558466080                       # Total energy per rank (pJ)
system.mem_ctrl.dram.rank1.averagePower    530.530972                       # Core power per rank (mW)
system.mem_ctrl.dram.rank1.totalIdleTime            0                       # Total Idle time Per DRAM Rank
system.mem_ctrl.dram.rank1.pwrStateTime::IDLE    284967000                       # Time in different power states
system.mem_ctrl.dram.rank1.pwrStateTime::REF     35100000                       # Time in different power states
system.mem_ctrl.dram.rank1.pwrStateTime::SREF            0                       # Time in different power states
system.mem_ctrl.dram.rank1.pwrStateTime::PRE_PDN            0                       # Time in different power states
system.mem_ctrl.dram.rank1.pwrStateTime::ACT    732588000                       # Time in different power states
system.mem_ctrl.dram.rank1.pwrStateTime::ACT_PDN            0                       # Time in different power states
system.mem_ctrl.power_state.pwrStateResidencyTicks::UNDEFINED   1052655000                       # Cumulative time (in ticks) in various power states
system.membus.trans_dist::ReadResp               3059                       # Transaction distribution
system.membus.trans_dist::CleanEvict              114                       # Transaction distribution
system.membus.trans_dist::ReadExReq               558                       # Transaction distribution
system.membus.trans_dist::ReadExResp              558                       # Transaction distribution
system.membus.trans_dist::ReadSharedReq          3059                       # Transaction distribution
system.membus.pkt_count_system.l2cache.mem_side_port::system.mem_ctrl.port         7348                       # Packet count per connected requestor and responder (bytes)
system.membus.pkt_count_system.l2cache.mem_side_port::total         7348                       # Packet count per connected requestor and responder (bytes)
system.membus.pkt_count::total                   7348                       # Packet count per connected requestor and responder (bytes)
system.membus.pkt_size_system.l2cache.mem_side_port::system.mem_ctrl.port       231488                       # Cumulative packet size per connected requestor and responder (bytes)
system.membus.pkt_size_system.l2cache.mem_side_port::total       231488                       # Cumulative packet size per connected requestor and responder (bytes)
system.membus.pkt_size::total                  231488                       # Cumulative packet size per connected requestor and responder (bytes)
system.membus.snoops                                0                       # Total snoops (count)
system.membus.snoopTraffic                          0                       # Total snoop traffic (bytes)
system.membus.snoop_fanout::samples              3617                       # Request fanout histogram
system.membus.snoop_fanout::mean                    0                       # Request fanout histogram
system.membus.snoop_fanout::stdev                   0                       # Request fanout histogram
system.membus.snoop_fanout::underflows              0      0.00%      0.00% # Request fanout histogram
system.membus.snoop_fanout::0                    3617    100.00%    100.00% # Request fanout histogram
system.membus.snoop_fanout::1                       0      0.00%    100.00% # Request fanout histogram
system.membus.snoop_fanout::overflows               0      0.00%    100.00% # Request fanout histogram
system.membus.snoop_fanout::min_value               0                       # Request fanout histogram
system.membus.snoop_fanout::max_value               0                       # Request fanout histogram
system.membus.snoop_fanout::total                3617                       # Request fanout histogram
system.membus.power_state.pwrStateResidencyTicks::UNDEFINED   1052655000                       # Cumulative time (in ticks) in various power states
system.membus.reqLayer2.occupancy             3731000                       # Layer occupancy (ticks)
system.membus.reqLayer2.utilization               0.4                       # Layer utilization (%)
system.membus.respLayer0.occupancy           19207000                       # Layer occupancy (ticks)
system.membus.respLayer0.utilization              1.8                       # Layer utilization (%)

---------- End Simulation Statistics   ----------
