
---------- Begin Simulation Statistics ----------
final_tick                               2319999925000                       # Number of ticks from beginning of simulation (restored from checkpoints and never reset)
host_inst_rate                                 457241                       # Simulator instruction rate (inst/s)
host_mem_usage                                 674444                       # Number of bytes of host memory used
host_op_rate                                   669904                       # Simulator op (including micro ops) rate (op/s)
host_seconds                                  1150.77                       # Real time elapsed on the host
host_tick_rate                             2016046766                       # Simulator tick rate (ticks/s)
sim_freq                                 1000000000000                       # Frequency of simulated ticks
sim_insts                                   526177714                       # Number of instructions simulated
sim_ops                                     770903779                       # Number of ops (including micro ops) simulated
sim_seconds                                  2.320000                       # Number of seconds simulated
sim_ticks                                2319999925000                       # Number of ticks simulated
system.cpu.Branches                           3021913                       # Number of branches fetched
system.cpu.committedInsts                   526177714                       # Number of instructions committed
system.cpu.committedOps                     770903779                       # Number of ops (including micro ops) committed
system.cpu.idle_fraction                     0.000000                       # Percentage of idle cycles
system.cpu.not_idle_fraction                 1.000000                       # Percentage of non-idle cycles
system.cpu.numCycles                       2319999925                       # number of cpu cycles simulated
system.cpu.numWorkItemsCompleted                    0                       # number of work items this cpu completed
system.cpu.numWorkItemsStarted                      0                       # number of work items this cpu started
system.cpu.num_busy_cycles               2319999924.999000                       # Number of busy cycles
system.cpu.num_cc_register_reads              8346405                       # number of times the CC registers were read
system.cpu.num_cc_register_writes            12896323                       # number of times the CC registers were written
system.cpu.num_conditional_control_insts      1622643                       # number of instructions that are conditional controls
system.cpu.num_fp_alu_accesses              724171269                       # Number of float alu accesses
system.cpu.num_fp_insts                     724171269                       # number of float instructions
system.cpu.num_fp_register_reads           1031628198                       # number of times the floating registers were read
system.cpu.num_fp_register_writes           638978691                       # number of times the floating registers were written
system.cpu.num_func_calls                     1356008                       # number of times a function call or return occured
system.cpu.num_idle_cycles                   0.001000                       # Number of idle cycles
system.cpu.num_int_alu_accesses             281643955                       # Number of integer alu accesses
system.cpu.num_int_insts                    281643955                       # number of integer instructions
system.cpu.num_int_register_reads           783870228                       # number of times the integer registers were read
system.cpu.num_int_register_writes           35235552                       # number of times the integer registers were written
system.cpu.num_load_insts                   151055059                       # Number of load instructions
system.cpu.num_mem_refs                     244655491                       # number of memory refs
system.cpu.num_store_insts                   93600432                       # Number of store instructions
system.cpu.num_vec_alu_accesses                     0                       # Number of vector alu accesses
system.cpu.num_vec_insts                            0                       # number of vector instructions
system.cpu.num_vec_register_reads                   0                       # number of times the vector registers were read
system.cpu.num_vec_register_writes                  0                       # number of times the vector registers were written
system.cpu.op_class::No_OpClass                122347      0.02%      0.02% # Class of executed instruction
system.cpu.op_class::IntAlu                 156847908     20.35%     20.36% # Class of executed instruction
system.cpu.op_class::IntMult                    38310      0.00%     20.37% # Class of executed instruction
system.cpu.op_class::IntDiv                       567      0.00%     20.37% # Class of executed instruction
system.cpu.op_class::FloatAdd               129162355     16.75%     37.12% # Class of executed instruction
system.cpu.op_class::FloatCmp                       0      0.00%     37.12% # Class of executed instruction
system.cpu.op_class::FloatCvt                       0      0.00%     37.12% # Class of executed instruction
system.cpu.op_class::FloatMult                      0      0.00%     37.12% # Class of executed instruction
system.cpu.op_class::FloatMultAcc                   0      0.00%     37.12% # Class of executed instruction
system.cpu.op_class::FloatDiv                       0      0.00%     37.12% # Class of executed instruction
system.cpu.op_class::FloatMisc                      0      0.00%     37.12% # Class of executed instruction
system.cpu.op_class::FloatSqrt                      0      0.00%     37.12% # Class of executed instruction
system.cpu.op_class::SimdAdd                      104      0.00%     37.12% # Class of executed instruction
system.cpu.op_class::SimdAddAcc                     0      0.00%     37.12% # Class of executed instruction
system.cpu.op_class::SimdAlu                 13572619      1.76%     38.88% # Class of executed instruction
system.cpu.op_class::SimdCmp                       18      0.00%     38.88% # Class of executed instruction
system.cpu.op_class::SimdCvt                     1518      0.00%     38.88% # Class of executed instruction
system.cpu.op_class::SimdMisc                   18290      0.00%     38.88% # Class of executed instruction
system.cpu.op_class::SimdMult                       0      0.00%     38.88% # Class of executed instruction
system.cpu.op_class::SimdMultAcc                    0      0.00%     38.88% # Class of executed instruction
system.cpu.op_class::SimdShift                    156      0.00%     38.88% # Class of executed instruction
system.cpu.op_class::SimdShiftAcc                   0      0.00%     38.88% # Class of executed instruction
system.cpu.op_class::SimdDiv                        0      0.00%     38.88% # Class of executed instruction
system.cpu.op_class::SimdSqrt                       0      0.00%     38.88% # Class of executed instruction
system.cpu.op_class::SimdFloatAdd           100487583     13.04%     51.92% # Class of executed instruction
system.cpu.op_class::SimdFloatAlu                   0      0.00%     51.92% # Class of executed instruction
system.cpu.op_class::SimdFloatCmp                   0      0.00%     51.92% # Class of executed instruction
system.cpu.op_class::SimdFloatCvt               11622      0.00%     51.92% # Class of executed instruction
system.cpu.op_class::SimdFloatDiv             1355195      0.18%     52.10% # Class of executed instruction
system.cpu.op_class::SimdFloatMisc                  0      0.00%     52.10% # Class of executed instruction
system.cpu.op_class::SimdFloatMult          124629795     16.17%     68.26% # Class of executed instruction
system.cpu.op_class::SimdFloatMultAcc               0      0.00%     68.26% # Class of executed instruction
system.cpu.op_class::SimdFloatSqrt                 10      0.00%     68.26% # Class of executed instruction
system.cpu.op_class::SimdReduceAdd                  0      0.00%     68.26% # Class of executed instruction
system.cpu.op_class::SimdReduceAlu                  0      0.00%     68.26% # Class of executed instruction
system.cpu.op_class::SimdReduceCmp                  0      0.00%     68.26% # Class of executed instruction
system.cpu.op_class::SimdFloatReduceAdd             0      0.00%     68.26% # Class of executed instruction
system.cpu.op_class::SimdFloatReduceCmp             0      0.00%     68.26% # Class of executed instruction
system.cpu.op_class::SimdAes                        0      0.00%     68.26% # Class of executed instruction
system.cpu.op_class::SimdAesMix                     0      0.00%     68.26% # Class of executed instruction
system.cpu.op_class::SimdSha1Hash                   0      0.00%     68.26% # Class of executed instruction
system.cpu.op_class::SimdSha1Hash2                  0      0.00%     68.26% # Class of executed instruction
system.cpu.op_class::SimdSha256Hash                 0      0.00%     68.26% # Class of executed instruction
system.cpu.op_class::SimdSha256Hash2                0      0.00%     68.26% # Class of executed instruction
system.cpu.op_class::SimdShaSigma2                  0      0.00%     68.26% # Class of executed instruction
system.cpu.op_class::SimdShaSigma3                  0      0.00%     68.26% # Class of executed instruction
system.cpu.op_class::SimdPredAlu                    0      0.00%     68.26% # Class of executed instruction
system.cpu.op_class::MemRead                  1225916      0.16%     68.42% # Class of executed instruction
system.cpu.op_class::MemWrite                 8411217      1.09%     69.51% # Class of executed instruction
system.cpu.op_class::FloatMemRead           149829143     19.44%     88.95% # Class of executed instruction
system.cpu.op_class::FloatMemWrite           85189215     11.05%    100.00% # Class of executed instruction
system.cpu.op_class::IprAccess                      0      0.00%    100.00% # Class of executed instruction
system.cpu.op_class::InstPrefetch                   0      0.00%    100.00% # Class of executed instruction
system.cpu.op_class::total                  770903888                       # Class of executed instruction
system.cpu.workload.numSyscalls                    85                       # Number of system calls
system.l2bus.snoop_filter.hit_multi_requests            0                       # Number of requests hitting in the snoop filter with multiple (>1) holders of the requested data.
system.l2bus.snoop_filter.hit_multi_snoops            0                       # Number of snoops hitting in the snoop filter with multiple (>1) holders of the requested data.
system.l2bus.snoop_filter.hit_single_requests      4513452                       # Number of requests hitting in the snoop filter with a single holder of the requested data.
system.l2bus.snoop_filter.hit_single_snoops        25946                       # Number of snoops hitting in the snoop filter with a single holder of the requested data.
system.l2bus.snoop_filter.tot_requests        9028184                       # Total number of requests made to the snoop filter.
system.l2bus.snoop_filter.tot_snoops            25946                       # Total number of snoops made to the snoop filter.
system.membus.snoop_filter.hit_multi_requests            0                       # Number of requests hitting in the snoop filter with multiple (>1) holders of the requested data.
system.membus.snoop_filter.hit_multi_snoops            0                       # Number of snoops hitting in the snoop filter with multiple (>1) holders of the requested data.
system.membus.snoop_filter.hit_single_requests       412035                       # Number of requests hitting in the snoop filter with a single holder of the requested data.
system.membus.snoop_filter.hit_single_snoops            0                       # Number of snoops hitting in the snoop filter with a single holder of the requested data.
system.membus.snoop_filter.tot_requests        828205                       # Total number of requests made to the snoop filter.
system.membus.snoop_filter.tot_snoops               0                       # Total number of snoops made to the snoop filter.
system.clk_domain.clock                          1000                       # Clock period in ticks
system.clk_domain.voltage_domain.voltage            1                       # Voltage in Volts
system.cpu.dcache.demand_hits::.cpu.data    243143517                       # number of demand (read+write) hits
system.cpu.dcache.demand_hits::total        243143517                       # number of demand (read+write) hits
system.cpu.dcache.overall_hits::.cpu.data    243143517                       # number of overall hits
system.cpu.dcache.overall_hits::total       243143517                       # number of overall hits
system.cpu.dcache.demand_misses::.cpu.data      1512015                       # number of demand (read+write) misses
system.cpu.dcache.demand_misses::total        1512015                       # number of demand (read+write) misses
system.cpu.dcache.overall_misses::.cpu.data      1512015                       # number of overall misses
system.cpu.dcache.overall_misses::total       1512015                       # number of overall misses
system.cpu.dcache.demand_miss_latency::.cpu.data  67583058000                       # number of demand (read+write) miss cycles
system.cpu.dcache.demand_miss_latency::total  67583058000                       # number of demand (read+write) miss cycles
system.cpu.dcache.overall_miss_latency::.cpu.data  67583058000                       # number of overall miss cycles
system.cpu.dcache.overall_miss_latency::total  67583058000                       # number of overall miss cycles
system.cpu.dcache.demand_accesses::.cpu.data    244655532                       # number of demand (read+write) accesses
system.cpu.dcache.demand_accesses::total    244655532                       # number of demand (read+write) accesses
system.cpu.dcache.overall_accesses::.cpu.data    244655532                       # number of overall (read+write) accesses
system.cpu.dcache.overall_accesses::total    244655532                       # number of overall (read+write) accesses
system.cpu.dcache.demand_miss_rate::.cpu.data     0.006180                       # miss rate for demand accesses
system.cpu.dcache.demand_miss_rate::total     0.006180                       # miss rate for demand accesses
system.cpu.dcache.overall_miss_rate::.cpu.data     0.006180                       # miss rate for overall accesses
system.cpu.dcache.overall_miss_rate::total     0.006180                       # miss rate for overall accesses
system.cpu.dcache.demand_avg_miss_latency::.cpu.data 44697.346256                       # average overall miss latency
system.cpu.dcache.demand_avg_miss_latency::total 44697.346256                       # average overall miss latency
system.cpu.dcache.overall_avg_miss_latency::.cpu.data 44697.346256                       # average overall miss latency
system.cpu.dcache.overall_avg_miss_latency::total 44697.346256                       # average overall miss latency
system.cpu.dcache.blocked_cycles::no_mshrs            0                       # number of cycles access was blocked
system.cpu.dcache.blocked_cycles::no_targets            0                       # number of cycles access was blocked
system.cpu.dcache.blocked::no_mshrs                 0                       # number of cycles access was blocked
system.cpu.dcache.blocked::no_targets               0                       # number of cycles access was blocked
system.cpu.dcache.avg_blocked_cycles::no_mshrs          nan                       # average number of cycles each access was blocked
system.cpu.dcache.avg_blocked_cycles::no_targets          nan                       # average number of cycles each access was blocked
system.cpu.dcache.writebacks::.writebacks       828560                       # number of writebacks
system.cpu.dcache.writebacks::total            828560                       # number of writebacks
system.cpu.dcache.demand_mshr_misses::.cpu.data      1512015                       # number of demand (read+write) MSHR misses
system.cpu.dcache.demand_mshr_misses::total      1512015                       # number of demand (read+write) MSHR misses
system.cpu.dcache.overall_mshr_misses::.cpu.data      1512015                       # number of overall MSHR misses
system.cpu.dcache.overall_mshr_misses::total      1512015                       # number of overall MSHR misses
system.cpu.dcache.demand_mshr_miss_latency::.cpu.data  64559028000                       # number of demand (read+write) MSHR miss cycles
system.cpu.dcache.demand_mshr_miss_latency::total  64559028000                       # number of demand (read+write) MSHR miss cycles
system.cpu.dcache.overall_mshr_miss_latency::.cpu.data  64559028000                       # number of overall MSHR miss cycles
system.cpu.dcache.overall_mshr_miss_latency::total  64559028000                       # number of overall MSHR miss cycles
system.cpu.dcache.demand_mshr_miss_rate::.cpu.data     0.006180                       # mshr miss rate for demand accesses
system.cpu.dcache.demand_mshr_miss_rate::total     0.006180                       # mshr miss rate for demand accesses
system.cpu.dcache.overall_mshr_miss_rate::.cpu.data     0.006180                       # mshr miss rate for overall accesses
system.cpu.dcache.overall_mshr_miss_rate::total     0.006180                       # mshr miss rate for overall accesses
system.cpu.dcache.demand_avg_mshr_miss_latency::.cpu.data 42697.346256                       # average overall mshr miss latency
system.cpu.dcache.demand_avg_mshr_miss_latency::total 42697.346256                       # average overall mshr miss latency
system.cpu.dcache.overall_avg_mshr_miss_latency::.cpu.data 42697.346256                       # average overall mshr miss latency
system.cpu.dcache.overall_avg_mshr_miss_latency::total 42697.346256                       # average overall mshr miss latency
system.cpu.dcache.replacements                1510991                       # number of replacements
system.cpu.dcache.ReadReq_hits::.cpu.data    149747000                       # number of ReadReq hits
system.cpu.dcache.ReadReq_hits::total       149747000                       # number of ReadReq hits
system.cpu.dcache.ReadReq_misses::.cpu.data      1308087                       # number of ReadReq misses
system.cpu.dcache.ReadReq_misses::total       1308087                       # number of ReadReq misses
system.cpu.dcache.ReadReq_miss_latency::.cpu.data  53668314000                       # number of ReadReq miss cycles
system.cpu.dcache.ReadReq_miss_latency::total  53668314000                       # number of ReadReq miss cycles
system.cpu.dcache.ReadReq_accesses::.cpu.data    151055087                       # number of ReadReq accesses(hits+misses)
system.cpu.dcache.ReadReq_accesses::total    151055087                       # number of ReadReq accesses(hits+misses)
system.cpu.dcache.ReadReq_miss_rate::.cpu.data     0.008660                       # miss rate for ReadReq accesses
system.cpu.dcache.ReadReq_miss_rate::total     0.008660                       # miss rate for ReadReq accesses
system.cpu.dcache.ReadReq_avg_miss_latency::.cpu.data 41028.092168                       # average ReadReq miss latency
system.cpu.dcache.ReadReq_avg_miss_latency::total 41028.092168                       # average ReadReq miss latency
system.cpu.dcache.ReadReq_mshr_misses::.cpu.data      1308087                       # number of ReadReq MSHR misses
system.cpu.dcache.ReadReq_mshr_misses::total      1308087                       # number of ReadReq MSHR misses
system.cpu.dcache.ReadReq_mshr_miss_latency::.cpu.data  51052140000                       # number of ReadReq MSHR miss cycles
system.cpu.dcache.ReadReq_mshr_miss_latency::total  51052140000                       # number of ReadReq MSHR miss cycles
system.cpu.dcache.ReadReq_mshr_miss_rate::.cpu.data     0.008660                       # mshr miss rate for ReadReq accesses
system.cpu.dcache.ReadReq_mshr_miss_rate::total     0.008660                       # mshr miss rate for ReadReq accesses
system.cpu.dcache.ReadReq_avg_mshr_miss_latency::.cpu.data 39028.092168                       # average ReadReq mshr miss latency
system.cpu.dcache.ReadReq_avg_mshr_miss_latency::total 39028.092168                       # average ReadReq mshr miss latency
system.cpu.dcache.WriteReq_hits::.cpu.data     93396517                       # number of WriteReq hits
system.cpu.dcache.WriteReq_hits::total       93396517                       # number of WriteReq hits
system.cpu.dcache.WriteReq_misses::.cpu.data       203928                       # number of WriteReq misses
system.cpu.dcache.WriteReq_misses::total       203928                       # number of WriteReq misses
system.cpu.dcache.WriteReq_miss_latency::.cpu.data  13914744000                       # number of WriteReq miss cycles
system.cpu.dcache.WriteReq_miss_latency::total  13914744000                       # number of WriteReq miss cycles
system.cpu.dcache.WriteReq_accesses::.cpu.data     93600445                       # number of WriteReq accesses(hits+misses)
system.cpu.dcache.WriteReq_accesses::total     93600445                       # number of WriteReq accesses(hits+misses)
system.cpu.dcache.WriteReq_miss_rate::.cpu.data     0.002179                       # miss rate for WriteReq accesses
system.cpu.dcache.WriteReq_miss_rate::total     0.002179                       # miss rate for WriteReq accesses
system.cpu.dcache.WriteReq_avg_miss_latency::.cpu.data 68233.611863                       # average WriteReq miss latency
system.cpu.dcache.WriteReq_avg_miss_latency::total 68233.611863                       # average WriteReq miss latency
system.cpu.dcache.WriteReq_mshr_misses::.cpu.data       203928                       # number of WriteReq MSHR misses
system.cpu.dcache.WriteReq_mshr_misses::total       203928                       # number of WriteReq MSHR misses
system.cpu.dcache.WriteReq_mshr_miss_latency::.cpu.data  13506888000                       # number of WriteReq MSHR miss cycles
system.cpu.dcache.WriteReq_mshr_miss_latency::total  13506888000                       # number of WriteReq MSHR miss cycles
system.cpu.dcache.WriteReq_mshr_miss_rate::.cpu.data     0.002179                       # mshr miss rate for WriteReq accesses
system.cpu.dcache.WriteReq_mshr_miss_rate::total     0.002179                       # mshr miss rate for WriteReq accesses
system.cpu.dcache.WriteReq_avg_mshr_miss_latency::.cpu.data 66233.611863                       # average WriteReq mshr miss latency
system.cpu.dcache.WriteReq_avg_mshr_miss_latency::total 66233.611863                       # average WriteReq mshr miss latency
system.cpu.dcache.power_state.pwrStateResidencyTicks::UNDEFINED 2319999925000                       # Cumulative time (in ticks) in various power states
system.cpu.dcache.tags.tagsinuse          1023.846083                       # Cycle average of tags in use
system.cpu.dcache.tags.total_refs           244655532                       # Total number of references to valid blocks.
system.cpu.dcache.tags.sampled_refs           1512015                       # Sample count of references to valid blocks.
system.cpu.dcache.tags.avg_refs            161.807609                       # Average number of references to valid blocks.
system.cpu.dcache.tags.warmup_cycle            224000                       # Cycle when the warmup percentage was hit.
system.cpu.dcache.tags.occ_blocks::.cpu.data  1023.846083                       # Average occupied blocks per requestor
system.cpu.dcache.tags.occ_percent::.cpu.data     0.999850                       # Average percentage of cache occupancy
system.cpu.dcache.tags.occ_percent::total     0.999850                       # Average percentage of cache occupancy
system.cpu.dcache.tags.occ_task_id_blocks::1024         1024                       # Occupied blocks per task id
system.cpu.dcache.tags.age_task_id_blocks_1024::0           27                       # Occupied blocks per task id
system.cpu.dcache.tags.age_task_id_blocks_1024::1           84                       # Occupied blocks per task id
system.cpu.dcache.tags.age_task_id_blocks_1024::2          498                       # Occupied blocks per task id
system.cpu.dcache.tags.age_task_id_blocks_1024::3          415                       # Occupied blocks per task id
system.cpu.dcache.tags.occ_task_id_percent::1024            1                       # Percentage of cache occupancy per task id
system.cpu.dcache.tags.tag_accesses         490823079                       # Number of tag accesses
system.cpu.dcache.tags.data_accesses        490823079                       # Number of data accesses
system.cpu.dcache.tags.power_state.pwrStateResidencyTicks::UNDEFINED 2319999925000                       # Cumulative time (in ticks) in various power states
system.cpu.dtb.rdAccesses                   151055088                       # TLB accesses on read requests
system.cpu.dtb.wrAccesses                    93600468                       # TLB accesses on write requests
system.cpu.dtb.rdMisses                          4202                       # TLB misses on read requests
system.cpu.dtb.wrMisses                          2551                       # TLB misses on write requests
system.cpu.dtb.walker.power_state.pwrStateResidencyTicks::UNDEFINED 2319999925000                       # Cumulative time (in ticks) in various power states
system.cpu.icache.demand_hits::.cpu.inst    841887847                       # number of demand (read+write) hits
system.cpu.icache.demand_hits::total        841887847                       # number of demand (read+write) hits
system.cpu.icache.overall_hits::.cpu.inst    841887847                       # number of overall hits
system.cpu.icache.overall_hits::total       841887847                       # number of overall hits
system.cpu.icache.demand_misses::.cpu.inst      3002717                       # number of demand (read+write) misses
system.cpu.icache.demand_misses::total        3002717                       # number of demand (read+write) misses
system.cpu.icache.overall_misses::.cpu.inst      3002717                       # number of overall misses
system.cpu.icache.overall_misses::total       3002717                       # number of overall misses
system.cpu.icache.demand_miss_latency::.cpu.inst  82354207000                       # number of demand (read+write) miss cycles
system.cpu.icache.demand_miss_latency::total  82354207000                       # number of demand (read+write) miss cycles
system.cpu.icache.overall_miss_latency::.cpu.inst  82354207000                       # number of overall miss cycles
system.cpu.icache.overall_miss_latency::total  82354207000                       # number of overall miss cycles
system.cpu.icache.demand_accesses::.cpu.inst    844890564                       # number of demand (read+write) accesses
system.cpu.icache.demand_accesses::total    844890564                       # number of demand (read+write) accesses
system.cpu.icache.overall_accesses::.cpu.inst    844890564                       # number of overall (read+write) accesses
system.cpu.icache.overall_accesses::total    844890564                       # number of overall (read+write) accesses
system.cpu.icache.demand_miss_rate::.cpu.inst     0.003554                       # miss rate for demand accesses
system.cpu.icache.demand_miss_rate::total     0.003554                       # miss rate for demand accesses
system.cpu.icache.overall_miss_rate::.cpu.inst     0.003554                       # miss rate for overall accesses
system.cpu.icache.overall_miss_rate::total     0.003554                       # miss rate for overall accesses
system.cpu.icache.demand_avg_miss_latency::.cpu.inst 27426.563009                       # average overall miss latency
system.cpu.icache.demand_avg_miss_latency::total 27426.563009                       # average overall miss latency
system.cpu.icache.overall_avg_miss_latency::.cpu.inst 27426.563009                       # average overall miss latency
system.cpu.icache.overall_avg_miss_latency::total 27426.563009                       # average overall miss latency
system.cpu.icache.blocked_cycles::no_mshrs            0                       # number of cycles access was blocked
system.cpu.icache.blocked_cycles::no_targets            0                       # number of cycles access was blocked
system.cpu.icache.blocked::no_mshrs                 0                       # number of cycles access was blocked
system.cpu.icache.blocked::no_targets               0                       # number of cycles access was blocked
system.cpu.icache.avg_blocked_cycles::no_mshrs          nan                       # average number of cycles each access was blocked
system.cpu.icache.avg_blocked_cycles::no_targets          nan                       # average number of cycles each access was blocked
system.cpu.icache.demand_mshr_misses::.cpu.inst      3002717                       # number of demand (read+write) MSHR misses
system.cpu.icache.demand_mshr_misses::total      3002717                       # number of demand (read+write) MSHR misses
system.cpu.icache.overall_mshr_misses::.cpu.inst      3002717                       # number of overall MSHR misses
system.cpu.icache.overall_mshr_misses::total      3002717                       # number of overall MSHR misses
system.cpu.icache.demand_mshr_miss_latency::.cpu.inst  76348773000                       # number of demand (read+write) MSHR miss cycles
system.cpu.icache.demand_mshr_miss_latency::total  76348773000                       # number of demand (read+write) MSHR miss cycles
system.cpu.icache.overall_mshr_miss_latency::.cpu.inst  76348773000                       # number of overall MSHR miss cycles
system.cpu.icache.overall_mshr_miss_latency::total  76348773000                       # number of overall MSHR miss cycles
system.cpu.icache.demand_mshr_miss_rate::.cpu.inst     0.003554                       # mshr miss rate for demand accesses
system.cpu.icache.demand_mshr_miss_rate::total     0.003554                       # mshr miss rate for demand accesses
system.cpu.icache.overall_mshr_miss_rate::.cpu.inst     0.003554                       # mshr miss rate for overall accesses
system.cpu.icache.overall_mshr_miss_rate::total     0.003554                       # mshr miss rate for overall accesses
system.cpu.icache.demand_avg_mshr_miss_latency::.cpu.inst 25426.563009                       # average overall mshr miss latency
system.cpu.icache.demand_avg_mshr_miss_latency::total 25426.563009                       # average overall mshr miss latency
system.cpu.icache.overall_avg_mshr_miss_latency::.cpu.inst 25426.563009                       # average overall mshr miss latency
system.cpu.icache.overall_avg_mshr_miss_latency::total 25426.563009                       # average overall mshr miss latency
system.cpu.icache.replacements                3002461                       # number of replacements
system.cpu.icache.ReadReq_hits::.cpu.inst    841887847                       # number of ReadReq hits
system.cpu.icache.ReadReq_hits::total       841887847                       # number of ReadReq hits
system.cpu.icache.ReadReq_misses::.cpu.inst      3002717                       # number of ReadReq misses
system.cpu.icache.ReadReq_misses::total       3002717                       # number of ReadReq misses
system.cpu.icache.ReadReq_miss_latency::.cpu.inst  82354207000                       # number of ReadReq miss cycles
system.cpu.icache.ReadReq_miss_latency::total  82354207000                       # number of ReadReq miss cycles
system.cpu.icache.ReadReq_accesses::.cpu.inst    844890564                       # number of ReadReq accesses(hits+misses)
system.cpu.icache.ReadReq_accesses::total    844890564                       # number of ReadReq accesses(hits+misses)
system.cpu.icache.ReadReq_miss_rate::.cpu.inst     0.003554                       # miss rate for ReadReq accesses
system.cpu.icache.ReadReq_miss_rate::total     0.003554                       # miss rate for ReadReq accesses
system.cpu.icache.ReadReq_avg_miss_latency::.cpu.inst 27426.563009                       # average ReadReq miss latency
system.cpu.icache.ReadReq_avg_miss_latency::total 27426.563009                       # average ReadReq miss latency
system.cpu.icache.ReadReq_mshr_misses::.cpu.inst      3002717                       # number of ReadReq MSHR misses
system.cpu.icache.ReadReq_mshr_misses::total      3002717                       # number of ReadReq MSHR misses
system.cpu.icache.ReadReq_mshr_miss_latency::.cpu.inst  76348773000                       # number of ReadReq MSHR miss cycles
system.cpu.icache.ReadReq_mshr_miss_latency::total  76348773000                       # number of ReadReq MSHR miss cycles
system.cpu.icache.ReadReq_mshr_miss_rate::.cpu.inst     0.003554                       # mshr miss rate for ReadReq accesses
system.cpu.icache.ReadReq_mshr_miss_rate::total     0.003554                       # mshr miss rate for ReadReq accesses
system.cpu.icache.ReadReq_avg_mshr_miss_latency::.cpu.inst 25426.563009                       # average ReadReq mshr miss latency
system.cpu.icache.ReadReq_avg_mshr_miss_latency::total 25426.563009                       # average ReadReq mshr miss latency
system.cpu.icache.power_state.pwrStateResidencyTicks::UNDEFINED 2319999925000                       # Cumulative time (in ticks) in various power states
system.cpu.icache.tags.tagsinuse           255.994449                       # Cycle average of tags in use
system.cpu.icache.tags.total_refs           844890564                       # Total number of references to valid blocks.
system.cpu.icache.tags.sampled_refs           3002717                       # Sample count of references to valid blocks.
system.cpu.icache.tags.avg_refs            281.375356                       # Average number of references to valid blocks.
system.cpu.icache.tags.warmup_cycle            107000                       # Cycle when the warmup percentage was hit.
system.cpu.icache.tags.occ_blocks::.cpu.inst   255.994449                       # Average occupied blocks per requestor
system.cpu.icache.tags.occ_percent::.cpu.inst     0.999978                       # Average percentage of cache occupancy
system.cpu.icache.tags.occ_percent::total     0.999978                       # Average percentage of cache occupancy
system.cpu.icache.tags.occ_task_id_blocks::1024          256                       # Occupied blocks per task id
system.cpu.icache.tags.age_task_id_blocks_1024::0           35                       # Occupied blocks per task id
system.cpu.icache.tags.age_task_id_blocks_1024::1          105                       # Occupied blocks per task id
system.cpu.icache.tags.age_task_id_blocks_1024::2          108                       # Occupied blocks per task id
system.cpu.icache.tags.age_task_id_blocks_1024::3            8                       # Occupied blocks per task id
system.cpu.icache.tags.occ_task_id_percent::1024            1                       # Percentage of cache occupancy per task id
system.cpu.icache.tags.tag_accesses        1692783845                       # Number of tag accesses
system.cpu.icache.tags.data_accesses       1692783845                       # Number of data accesses
system.cpu.icache.tags.power_state.pwrStateResidencyTicks::UNDEFINED 2319999925000                       # Cumulative time (in ticks) in various power states
system.cpu.interrupts.clk_domain.clock          16000                       # Clock period in ticks
system.cpu.itb.rdAccesses                           0                       # TLB accesses on read requests
system.cpu.itb.wrAccesses                   844890564                       # TLB accesses on write requests
system.cpu.itb.rdMisses                             0                       # TLB misses on read requests
system.cpu.itb.wrMisses                           158                       # TLB misses on write requests
system.cpu.itb.walker.power_state.pwrStateResidencyTicks::UNDEFINED 2319999925000                       # Cumulative time (in ticks) in various power states
system.cpu.power_state.pwrStateResidencyTicks::ON 2319999925000                       # Cumulative time (in ticks) in various power states
system.cpu.thread_0.numInsts                        0                       # Number of Instructions committed
system.cpu.thread_0.numOps                          0                       # Number of Ops committed
system.cpu.thread_0.numMemRefs                      0                       # Number of Memory References
system.l2bus.trans_dist::ReadResp             4310804                       # Transaction distribution
system.l2bus.trans_dist::WritebackDirty       1026066                       # Transaction distribution
system.l2bus.trans_dist::CleanEvict           3903101                       # Transaction distribution
system.l2bus.trans_dist::ReadExReq             203928                       # Transaction distribution
system.l2bus.trans_dist::ReadExResp            203928                       # Transaction distribution
system.l2bus.trans_dist::ReadSharedReq        4310804                       # Transaction distribution
system.l2bus.pkt_count_system.cpu.icache.mem_side_port::system.l2cache.cpu_side_port      9007895                       # Packet count per connected requestor and responder (bytes)
system.l2bus.pkt_count_system.cpu.dcache.mem_side_port::system.l2cache.cpu_side_port      4535021                       # Packet count per connected requestor and responder (bytes)
system.l2bus.pkt_count::total                13542916                       # Packet count per connected requestor and responder (bytes)
system.l2bus.pkt_size_system.cpu.icache.mem_side_port::system.l2cache.cpu_side_port    192173888                       # Cumulative packet size per connected requestor and responder (bytes)
system.l2bus.pkt_size_system.cpu.dcache.mem_side_port::system.l2cache.cpu_side_port    149796800                       # Cumulative packet size per connected requestor and responder (bytes)
system.l2bus.pkt_size::total                341970688                       # Cumulative packet size per connected requestor and responder (bytes)
system.l2bus.snoops                            415715                       # Total snoops (count)
system.l2bus.snoopTraffic                    12640384                       # Total snoop traffic (bytes)
system.l2bus.snoop_fanout::samples            4930447                       # Request fanout histogram
system.l2bus.snoop_fanout::mean              0.005262                       # Request fanout histogram
system.l2bus.snoop_fanout::stdev             0.072351                       # Request fanout histogram
system.l2bus.snoop_fanout::underflows               0      0.00%      0.00% # Request fanout histogram
system.l2bus.snoop_fanout::0                  4904501     99.47%     99.47% # Request fanout histogram
system.l2bus.snoop_fanout::1                    25946      0.53%    100.00% # Request fanout histogram
system.l2bus.snoop_fanout::2                        0      0.00%    100.00% # Request fanout histogram
system.l2bus.snoop_fanout::overflows                0      0.00%    100.00% # Request fanout histogram
system.l2bus.snoop_fanout::min_value                0                       # Request fanout histogram
system.l2bus.snoop_fanout::max_value                1                       # Request fanout histogram
system.l2bus.snoop_fanout::total              4930447                       # Request fanout histogram
system.l2bus.power_state.pwrStateResidencyTicks::UNDEFINED 2319999925000                       # Cumulative time (in ticks) in various power states
system.l2bus.reqLayer0.occupancy          10685304000                       # Layer occupancy (ticks)
system.l2bus.reqLayer0.utilization                0.5                       # Layer utilization (%)
system.l2bus.respLayer0.occupancy          9008151000                       # Layer occupancy (ticks)
system.l2bus.respLayer0.utilization               0.4                       # Layer utilization (%)
system.l2bus.respLayer1.occupancy          4536045000                       # Layer occupancy (ticks)
system.l2bus.respLayer1.utilization               0.2                       # Layer utilization (%)
system.l2cache.demand_hits::.cpu.inst         2946151                       # number of demand (read+write) hits
system.l2cache.demand_hits::.cpu.data         1152411                       # number of demand (read+write) hits
system.l2cache.demand_hits::total             4098562                       # number of demand (read+write) hits
system.l2cache.overall_hits::.cpu.inst        2946151                       # number of overall hits
system.l2cache.overall_hits::.cpu.data        1152411                       # number of overall hits
system.l2cache.overall_hits::total            4098562                       # number of overall hits
system.l2cache.demand_misses::.cpu.inst         56566                       # number of demand (read+write) misses
system.l2cache.demand_misses::.cpu.data        359604                       # number of demand (read+write) misses
system.l2cache.demand_misses::total            416170                       # number of demand (read+write) misses
system.l2cache.overall_misses::.cpu.inst        56566                       # number of overall misses
system.l2cache.overall_misses::.cpu.data       359604                       # number of overall misses
system.l2cache.overall_misses::total           416170                       # number of overall misses
system.l2cache.demand_miss_latency::.cpu.inst   5470920000                       # number of demand (read+write) miss cycles
system.l2cache.demand_miss_latency::.cpu.data  35816864000                       # number of demand (read+write) miss cycles
system.l2cache.demand_miss_latency::total  41287784000                       # number of demand (read+write) miss cycles
system.l2cache.overall_miss_latency::.cpu.inst   5470920000                       # number of overall miss cycles
system.l2cache.overall_miss_latency::.cpu.data  35816864000                       # number of overall miss cycles
system.l2cache.overall_miss_latency::total  41287784000                       # number of overall miss cycles
system.l2cache.demand_accesses::.cpu.inst      3002717                       # number of demand (read+write) accesses
system.l2cache.demand_accesses::.cpu.data      1512015                       # number of demand (read+write) accesses
system.l2cache.demand_accesses::total         4514732                       # number of demand (read+write) accesses
system.l2cache.overall_accesses::.cpu.inst      3002717                       # number of overall (read+write) accesses
system.l2cache.overall_accesses::.cpu.data      1512015                       # number of overall (read+write) accesses
system.l2cache.overall_accesses::total        4514732                       # number of overall (read+write) accesses
system.l2cache.demand_miss_rate::.cpu.inst     0.018838                       # miss rate for demand accesses
system.l2cache.demand_miss_rate::.cpu.data     0.237831                       # miss rate for demand accesses
system.l2cache.demand_miss_rate::total       0.092180                       # miss rate for demand accesses
system.l2cache.overall_miss_rate::.cpu.inst     0.018838                       # miss rate for overall accesses
system.l2cache.overall_miss_rate::.cpu.data     0.237831                       # miss rate for overall accesses
system.l2cache.overall_miss_rate::total      0.092180                       # miss rate for overall accesses
system.l2cache.demand_avg_miss_latency::.cpu.inst 96717.462787                       # average overall miss latency
system.l2cache.demand_avg_miss_latency::.cpu.data 99600.849824                       # average overall miss latency
system.l2cache.demand_avg_miss_latency::total 99208.938655                       # average overall miss latency
system.l2cache.overall_avg_miss_latency::.cpu.inst 96717.462787                       # average overall miss latency
system.l2cache.overall_avg_miss_latency::.cpu.data 99600.849824                       # average overall miss latency
system.l2cache.overall_avg_miss_latency::total 99208.938655                       # average overall miss latency
system.l2cache.blocked_cycles::no_mshrs             0                       # number of cycles access was blocked
system.l2cache.blocked_cycles::no_targets            0                       # number of cycles access was blocked
system.l2cache.blocked::no_mshrs                    0                       # number of cycles access was blocked
system.l2cache.blocked::no_targets                  0                       # number of cycles access was blocked
system.l2cache.avg_blocked_cycles::no_mshrs          nan                       # average number of cycles each access was blocked
system.l2cache.avg_blocked_cycles::no_targets          nan                       # average number of cycles each access was blocked
system.l2cache.writebacks::.writebacks         197506                       # number of writebacks
system.l2cache.writebacks::total               197506                       # number of writebacks
system.l2cache.demand_mshr_misses::.cpu.inst        56566                       # number of demand (read+write) MSHR misses
system.l2cache.demand_mshr_misses::.cpu.data       359604                       # number of demand (read+write) MSHR misses
system.l2cache.demand_mshr_misses::total       416170                       # number of demand (read+write) MSHR misses
system.l2cache.overall_mshr_misses::.cpu.inst        56566                       # number of overall MSHR misses
system.l2cache.overall_mshr_misses::.cpu.data       359604                       # number of overall MSHR misses
system.l2cache.overall_mshr_misses::total       416170                       # number of overall MSHR misses
system.l2cache.demand_mshr_miss_latency::.cpu.inst   4339600000                       # number of demand (read+write) MSHR miss cycles
system.l2cache.demand_mshr_miss_latency::.cpu.data  28624784000                       # number of demand (read+write) MSHR miss cycles
system.l2cache.demand_mshr_miss_latency::total  32964384000                       # number of demand (read+write) MSHR miss cycles
system.l2cache.overall_mshr_miss_latency::.cpu.inst   4339600000                       # number of overall MSHR miss cycles
system.l2cache.overall_mshr_miss_latency::.cpu.data  28624784000                       # number of overall MSHR miss cycles
system.l2cache.overall_mshr_miss_latency::total  32964384000                       # number of overall MSHR miss cycles
system.l2cache.demand_mshr_miss_rate::.cpu.inst     0.018838                       # mshr miss rate for demand accesses
system.l2cache.demand_mshr_miss_rate::.cpu.data     0.237831                       # mshr miss rate for demand accesses
system.l2cache.demand_mshr_miss_rate::total     0.092180                       # mshr miss rate for demand accesses
system.l2cache.overall_mshr_miss_rate::.cpu.inst     0.018838                       # mshr miss rate for overall accesses
system.l2cache.overall_mshr_miss_rate::.cpu.data     0.237831                       # mshr miss rate for overall accesses
system.l2cache.overall_mshr_miss_rate::total     0.092180                       # mshr miss rate for overall accesses
system.l2cache.demand_avg_mshr_miss_latency::.cpu.inst 76717.462787                       # average overall mshr miss latency
system.l2cache.demand_avg_mshr_miss_latency::.cpu.data 79600.849824                       # average overall mshr miss latency
system.l2cache.demand_avg_mshr_miss_latency::total 79208.938655                       # average overall mshr miss latency
system.l2cache.overall_avg_mshr_miss_latency::.cpu.inst 76717.462787                       # average overall mshr miss latency
system.l2cache.overall_avg_mshr_miss_latency::.cpu.data 79600.849824                       # average overall mshr miss latency
system.l2cache.overall_avg_mshr_miss_latency::total 79208.938655                       # average overall mshr miss latency
system.l2cache.replacements                    411582                       # number of replacements
system.l2cache.WritebackDirty_hits::.writebacks       828525                       # number of WritebackDirty hits
system.l2cache.WritebackDirty_hits::total       828525                       # number of WritebackDirty hits
system.l2cache.WritebackDirty_misses::.writebacks           35                       # number of WritebackDirty misses
system.l2cache.WritebackDirty_misses::total           35                       # number of WritebackDirty misses
system.l2cache.WritebackDirty_accesses::.writebacks       828560                       # number of WritebackDirty accesses(hits+misses)
system.l2cache.WritebackDirty_accesses::total       828560                       # number of WritebackDirty accesses(hits+misses)
system.l2cache.WritebackDirty_miss_rate::.writebacks     0.000042                       # miss rate for WritebackDirty accesses
system.l2cache.WritebackDirty_miss_rate::total     0.000042                       # miss rate for WritebackDirty accesses
system.l2cache.WritebackDirty_mshr_misses::.writebacks           35                       # number of WritebackDirty MSHR misses
system.l2cache.WritebackDirty_mshr_misses::total           35                       # number of WritebackDirty MSHR misses
system.l2cache.WritebackDirty_mshr_miss_rate::.writebacks     0.000042                       # mshr miss rate for WritebackDirty accesses
system.l2cache.WritebackDirty_mshr_miss_rate::total     0.000042                       # mshr miss rate for WritebackDirty accesses
system.l2cache.CleanEvict_mshr_misses::.writebacks        22231                       # number of CleanEvict MSHR misses
system.l2cache.CleanEvict_mshr_misses::total        22231                       # number of CleanEvict MSHR misses
system.l2cache.CleanEvict_mshr_miss_rate::.writebacks          inf                       # mshr miss rate for CleanEvict accesses
system.l2cache.CleanEvict_mshr_miss_rate::total          inf                       # mshr miss rate for CleanEvict accesses
system.l2cache.ReadExReq_hits::.cpu.data        90808                       # number of ReadExReq hits
system.l2cache.ReadExReq_hits::total            90808                       # number of ReadExReq hits
system.l2cache.ReadExReq_misses::.cpu.data       113120                       # number of ReadExReq misses
system.l2cache.ReadExReq_misses::total         113120                       # number of ReadExReq misses
system.l2cache.ReadExReq_miss_latency::.cpu.data  10985350000                       # number of ReadExReq miss cycles
system.l2cache.ReadExReq_miss_latency::total  10985350000                       # number of ReadExReq miss cycles
system.l2cache.ReadExReq_accesses::.cpu.data       203928                       # number of ReadExReq accesses(hits+misses)
system.l2cache.ReadExReq_accesses::total       203928                       # number of ReadExReq accesses(hits+misses)
system.l2cache.ReadExReq_miss_rate::.cpu.data     0.554706                       # miss rate for ReadExReq accesses
system.l2cache.ReadExReq_miss_rate::total     0.554706                       # miss rate for ReadExReq accesses
system.l2cache.ReadExReq_avg_miss_latency::.cpu.data 97112.358557                       # average ReadExReq miss latency
system.l2cache.ReadExReq_avg_miss_latency::total 97112.358557                       # average ReadExReq miss latency
system.l2cache.ReadExReq_mshr_misses::.cpu.data       113120                       # number of ReadExReq MSHR misses
system.l2cache.ReadExReq_mshr_misses::total       113120                       # number of ReadExReq MSHR misses
system.l2cache.ReadExReq_mshr_miss_latency::.cpu.data   8722950000                       # number of ReadExReq MSHR miss cycles
system.l2cache.ReadExReq_mshr_miss_latency::total   8722950000                       # number of ReadExReq MSHR miss cycles
system.l2cache.ReadExReq_mshr_miss_rate::.cpu.data     0.554706                       # mshr miss rate for ReadExReq accesses
system.l2cache.ReadExReq_mshr_miss_rate::total     0.554706                       # mshr miss rate for ReadExReq accesses
system.l2cache.ReadExReq_avg_mshr_miss_latency::.cpu.data 77112.358557                       # average ReadExReq mshr miss latency
system.l2cache.ReadExReq_avg_mshr_miss_latency::total 77112.358557                       # average ReadExReq mshr miss latency
system.l2cache.ReadSharedReq_hits::.cpu.inst      2946151                       # number of ReadSharedReq hits
system.l2cache.ReadSharedReq_hits::.cpu.data      1061603                       # number of ReadSharedReq hits
system.l2cache.ReadSharedReq_hits::total      4007754                       # number of ReadSharedReq hits
system.l2cache.ReadSharedReq_misses::.cpu.inst        56566                       # number of ReadSharedReq misses
system.l2cache.ReadSharedReq_misses::.cpu.data       246484                       # number of ReadSharedReq misses
system.l2cache.ReadSharedReq_misses::total       303050                       # number of ReadSharedReq misses
system.l2cache.ReadSharedReq_miss_latency::.cpu.inst   5470920000                       # number of ReadSharedReq miss cycles
system.l2cache.ReadSharedReq_miss_latency::.cpu.data  24831514000                       # number of ReadSharedReq miss cycles
system.l2cache.ReadSharedReq_miss_latency::total  30302434000                       # number of ReadSharedReq miss cycles
system.l2cache.ReadSharedReq_accesses::.cpu.inst      3002717                       # number of ReadSharedReq accesses(hits+misses)
system.l2cache.ReadSharedReq_accesses::.cpu.data      1308087                       # number of ReadSharedReq accesses(hits+misses)
system.l2cache.ReadSharedReq_accesses::total      4310804                       # number of ReadSharedReq accesses(hits+misses)
system.l2cache.ReadSharedReq_miss_rate::.cpu.inst     0.018838                       # miss rate for ReadSharedReq accesses
system.l2cache.ReadSharedReq_miss_rate::.cpu.data     0.188431                       # miss rate for ReadSharedReq accesses
system.l2cache.ReadSharedReq_miss_rate::total     0.070300                       # miss rate for ReadSharedReq accesses
system.l2cache.ReadSharedReq_avg_miss_latency::.cpu.inst 96717.462787                       # average ReadSharedReq miss latency
system.l2cache.ReadSharedReq_avg_miss_latency::.cpu.data 100742.904205                       # average ReadSharedReq miss latency
system.l2cache.ReadSharedReq_avg_miss_latency::total 99991.532750                       # average ReadSharedReq miss latency
system.l2cache.ReadSharedReq_mshr_misses::.cpu.inst        56566                       # number of ReadSharedReq MSHR misses
system.l2cache.ReadSharedReq_mshr_misses::.cpu.data       246484                       # number of ReadSharedReq MSHR misses
system.l2cache.ReadSharedReq_mshr_misses::total       303050                       # number of ReadSharedReq MSHR misses
system.l2cache.ReadSharedReq_mshr_miss_latency::.cpu.inst   4339600000                       # number of ReadSharedReq MSHR miss cycles
system.l2cache.ReadSharedReq_mshr_miss_latency::.cpu.data  19901834000                       # number of ReadSharedReq MSHR miss cycles
system.l2cache.ReadSharedReq_mshr_miss_latency::total  24241434000                       # number of ReadSharedReq MSHR miss cycles
system.l2cache.ReadSharedReq_mshr_miss_rate::.cpu.inst     0.018838                       # mshr miss rate for ReadSharedReq accesses
system.l2cache.ReadSharedReq_mshr_miss_rate::.cpu.data     0.188431                       # mshr miss rate for ReadSharedReq accesses
system.l2cache.ReadSharedReq_mshr_miss_rate::total     0.070300                       # mshr miss rate for ReadSharedReq accesses
system.l2cache.ReadSharedReq_avg_mshr_miss_latency::.cpu.inst 76717.462787                       # average ReadSharedReq mshr miss latency
system.l2cache.ReadSharedReq_avg_mshr_miss_latency::.cpu.data 80742.904205                       # average ReadSharedReq mshr miss latency
system.l2cache.ReadSharedReq_avg_mshr_miss_latency::total 79991.532750                       # average ReadSharedReq mshr miss latency
system.l2cache.power_state.pwrStateResidencyTicks::UNDEFINED 2319999925000                       # Cumulative time (in ticks) in various power states
system.l2cache.replacement_policy.totalBypasses         4168                       # Total number of cache bypasses
system.l2cache.replacement_policy.effectiveBypasses          793                       # Bypasses that correctly skipped non-reused blocks
system.l2cache.replacement_policy.ineffectiveBypasses         1311                       # Bypasses that incorrectly skipped requested blocks
system.l2cache.replacement_policy.virtualEffectiveBypasses         6136                       # Virtual bypasses correctly predicting non-reused blocks
system.l2cache.replacement_policy.virtualIneffectiveBypasses        13208                       # Virtual bypasses incorrectly predicting requested blocks
system.l2cache.tags.tagsinuse             4091.847763                       # Cycle average of tags in use
system.l2cache.tags.total_refs                9001785                       # Total number of references to valid blocks.
system.l2cache.tags.sampled_refs               415678                       # Sample count of references to valid blocks.
system.l2cache.tags.avg_refs                21.655669                       # Average number of references to valid blocks.
system.l2cache.tags.warmup_cycle                86000                       # Cycle when the warmup percentage was hit.
system.l2cache.tags.occ_blocks::.writebacks    21.345554                       # Average occupied blocks per requestor
system.l2cache.tags.occ_blocks::.cpu.inst   585.104092                       # Average occupied blocks per requestor
system.l2cache.tags.occ_blocks::.cpu.data  3485.398118                       # Average occupied blocks per requestor
system.l2cache.tags.occ_percent::.writebacks     0.005211                       # Average percentage of cache occupancy
system.l2cache.tags.occ_percent::.cpu.inst     0.142848                       # Average percentage of cache occupancy
system.l2cache.tags.occ_percent::.cpu.data     0.850927                       # Average percentage of cache occupancy
system.l2cache.tags.occ_percent::total       0.998986                       # Average percentage of cache occupancy
system.l2cache.tags.occ_task_id_blocks::1024         4096                       # Occupied blocks per task id
system.l2cache.tags.age_task_id_blocks_1024::0           59                       # Occupied blocks per task id
system.l2cache.tags.age_task_id_blocks_1024::1          123                       # Occupied blocks per task id
system.l2cache.tags.age_task_id_blocks_1024::2          670                       # Occupied blocks per task id
system.l2cache.tags.age_task_id_blocks_1024::3         2700                       # Occupied blocks per task id
system.l2cache.tags.age_task_id_blocks_1024::4          544                       # Occupied blocks per task id
system.l2cache.tags.occ_task_id_percent::1024            1                       # Percentage of cache occupancy per task id
system.l2cache.tags.tag_accesses             72641150                       # Number of tag accesses
system.l2cache.tags.data_accesses            72641150                       # Number of data accesses
system.l2cache.tags.power_state.pwrStateResidencyTicks::UNDEFINED 2319999925000                       # Cumulative time (in ticks) in various power states
system.mem_ctrl.avgPriority_.writebacks::samples    197541.00                       # Average QoS priority value for accepted requests
system.mem_ctrl.avgPriority_.cpu.inst::samples     56566.00                       # Average QoS priority value for accepted requests
system.mem_ctrl.avgPriority_.cpu.data::samples    349549.00                       # Average QoS priority value for accepted requests
system.mem_ctrl.priorityMinLatency       0.000000018750                       # per QoS priority minimum request to response latency (s)
system.mem_ctrl.priorityMaxLatency       0.045088076500                       # per QoS priority maximum request to response latency (s)
system.mem_ctrl.numReadWriteTurnArounds         11364                       # Number of turnarounds from READ to WRITE
system.mem_ctrl.numWriteReadTurnArounds         11365                       # Number of turnarounds from WRITE to READ
system.mem_ctrl.numStayReadState              1600466                       # Number of times bus staying in READ state
system.mem_ctrl.numStayWriteState              186354                       # Number of times bus staying in WRITE state
system.mem_ctrl.readReqs                       416170                       # Number of read requests accepted
system.mem_ctrl.writeReqs                      197541                       # Number of write requests accepted
system.mem_ctrl.readBursts                     416170                       # Number of controller read bursts, including those serviced by the write queue
system.mem_ctrl.writeBursts                    197541                       # Number of controller write bursts, including those merged in the write queue
system.mem_ctrl.servicedByWrQ                   10055                       # Number of controller read bursts serviced by the write queue
system.mem_ctrl.mergedWrBursts                      0                       # Number of controller write bursts merged with an existing one
system.mem_ctrl.neitherReadNorWriteReqs             0                       # Number of requests that are neither read nor write
system.mem_ctrl.avgRdQLen                        1.00                       # Average read queue length when enqueuing
system.mem_ctrl.avgWrQLen                       24.33                       # Average write queue length when enqueuing
system.mem_ctrl.numRdRetry                          0                       # Number of times read queue was full causing retry
system.mem_ctrl.numWrRetry                          0                       # Number of times write queue was full causing retry
system.mem_ctrl.readPktSize::0                      0                       # Read request sizes (log2)
system.mem_ctrl.readPktSize::1                      0                       # Read request sizes (log2)
system.mem_ctrl.readPktSize::2                      0                       # Read request sizes (log2)
system.mem_ctrl.readPktSize::3                      0                       # Read request sizes (log2)
system.mem_ctrl.readPktSize::4                      0                       # Read request sizes (log2)
system.mem_ctrl.readPktSize::5                      0                       # Read request sizes (log2)
system.mem_ctrl.readPktSize::6                 416170                       # Read request sizes (log2)
system.mem_ctrl.writePktSize::0                     0                       # Write request sizes (log2)
system.mem_ctrl.writePktSize::1                     0                       # Write request sizes (log2)
system.mem_ctrl.writePktSize::2                     0                       # Write request sizes (log2)
system.mem_ctrl.writePktSize::3                     0                       # Write request sizes (log2)
system.mem_ctrl.writePktSize::4                     0                       # Write request sizes (log2)
system.mem_ctrl.writePktSize::5                     0                       # Write request sizes (log2)
system.mem_ctrl.writePktSize::6                197541                       # Write request sizes (log2)
system.mem_ctrl.rdQLenPdf::0                   406115                       # What read queue length does an incoming req see
system.mem_ctrl.rdQLenPdf::1                        0                       # What read queue length does an incoming req see
system.mem_ctrl.rdQLenPdf::2                        0                       # What read queue length does an incoming req see
system.mem_ctrl.rdQLenPdf::3                        0                       # What read queue length does an incoming req see
system.mem_ctrl.rdQLenPdf::4                        0                       # What read queue length does an incoming req see
system.mem_ctrl.rdQLenPdf::5                        0                       # What read queue length does an incoming req see
system.mem_ctrl.rdQLenPdf::6                        0                       # What read queue length does an incoming req see
system.mem_ctrl.rdQLenPdf::7                        0                       # What read queue length does an incoming req see
system.mem_ctrl.rdQLenPdf::8                        0                       # What read queue length does an incoming req see
system.mem_ctrl.rdQLenPdf::9                        0                       # What read queue length does an incoming req see
system.mem_ctrl.rdQLenPdf::10                       0                       # What read queue length does an incoming req see
system.mem_ctrl.rdQLenPdf::11                       0                       # What read queue length does an incoming req see
system.mem_ctrl.rdQLenPdf::12                       0                       # What read queue length does an incoming req see
system.mem_ctrl.rdQLenPdf::13                       0                       # What read queue length does an incoming req see
system.mem_ctrl.rdQLenPdf::14                       0                       # What read queue length does an incoming req see
system.mem_ctrl.rdQLenPdf::15                       0                       # What read queue length does an incoming req see
system.mem_ctrl.rdQLenPdf::16                       0                       # What read queue length does an incoming req see
system.mem_ctrl.rdQLenPdf::17                       0                       # What read queue length does an incoming req see
system.mem_ctrl.rdQLenPdf::18                       0                       # What read queue length does an incoming req see
system.mem_ctrl.rdQLenPdf::19                       0                       # What read queue length does an incoming req see
system.mem_ctrl.rdQLenPdf::20                       0                       # What read queue length does an incoming req see
system.mem_ctrl.rdQLenPdf::21                       0                       # What read queue length does an incoming req see
system.mem_ctrl.rdQLenPdf::22                       0                       # What read queue length does an incoming req see
system.mem_ctrl.rdQLenPdf::23                       0                       # What read queue length does an incoming req see
system.mem_ctrl.rdQLenPdf::24                       0                       # What read queue length does an incoming req see
system.mem_ctrl.rdQLenPdf::25                       0                       # What read queue length does an incoming req see
system.mem_ctrl.rdQLenPdf::26                       0                       # What read queue length does an incoming req see
system.mem_ctrl.rdQLenPdf::27                       0                       # What read queue length does an incoming req see
system.mem_ctrl.rdQLenPdf::28                       0                       # What read queue length does an incoming req see
system.mem_ctrl.rdQLenPdf::29                       0                       # What read queue length does an incoming req see
system.mem_ctrl.rdQLenPdf::30                       0                       # What read queue length does an incoming req see
system.mem_ctrl.rdQLenPdf::31                       0                       # What read queue length does an incoming req see
system.mem_ctrl.wrQLenPdf::0                        1                       # What write queue length does an incoming req see
system.mem_ctrl.wrQLenPdf::1                        1                       # What write queue length does an incoming req see
system.mem_ctrl.wrQLenPdf::2                        1                       # What write queue length does an incoming req see
system.mem_ctrl.wrQLenPdf::3                        1                       # What write queue length does an incoming req see
system.mem_ctrl.wrQLenPdf::4                        1                       # What write queue length does an incoming req see
system.mem_ctrl.wrQLenPdf::5                        1                       # What write queue length does an incoming req see
system.mem_ctrl.wrQLenPdf::6                        1                       # What write queue length does an incoming req see
system.mem_ctrl.wrQLenPdf::7                        1                       # What write queue length does an incoming req see
system.mem_ctrl.wrQLenPdf::8                        1                       # What write queue length does an incoming req see
system.mem_ctrl.wrQLenPdf::9                        1                       # What write queue length does an incoming req see
system.mem_ctrl.wrQLenPdf::10                       1                       # What write queue length does an incoming req see
system.mem_ctrl.wrQLenPdf::11                       1                       # What write queue length does an incoming req see
system.mem_ctrl.wrQLenPdf::12                       1                       # What write queue length does an incoming req see
system.mem_ctrl.wrQLenPdf::13                       1                       # What write queue length does an incoming req see
system.mem_ctrl.wrQLenPdf::14                       1                       # What write queue length does an incoming req see
system.mem_ctrl.wrQLenPdf::15                    7550                       # What write queue length does an incoming req see
system.mem_ctrl.wrQLenPdf::16                    8120                       # What write queue length does an incoming req see
system.mem_ctrl.wrQLenPdf::17                   11364                       # What write queue length does an incoming req see
system.mem_ctrl.wrQLenPdf::18                   11373                       # What write queue length does an incoming req see
system.mem_ctrl.wrQLenPdf::19                   11367                       # What write queue length does an incoming req see
system.mem_ctrl.wrQLenPdf::20                   11366                       # What write queue length does an incoming req see
system.mem_ctrl.wrQLenPdf::21                   11368                       # What write queue length does an incoming req see
system.mem_ctrl.wrQLenPdf::22                   11366                       # What write queue length does an incoming req see
system.mem_ctrl.wrQLenPdf::23                   11365                       # What write queue length does an incoming req see
system.mem_ctrl.wrQLenPdf::24                   11365                       # What write queue length does an incoming req see
system.mem_ctrl.wrQLenPdf::25                   11365                       # What write queue length does an incoming req see
system.mem_ctrl.wrQLenPdf::26                   11366                       # What write queue length does an incoming req see
system.mem_ctrl.wrQLenPdf::27                   11365                       # What write queue length does an incoming req see
system.mem_ctrl.wrQLenPdf::28                   11365                       # What write queue length does an incoming req see
system.mem_ctrl.wrQLenPdf::29                   11365                       # What write queue length does an incoming req see
system.mem_ctrl.wrQLenPdf::30                   11365                       # What write queue length does an incoming req see
system.mem_ctrl.wrQLenPdf::31                   11365                       # What write queue length does an incoming req see
system.mem_ctrl.wrQLenPdf::32                   11365                       # What write queue length does an incoming req see
system.mem_ctrl.wrQLenPdf::33                       1                       # What write queue length does an incoming req see
system.mem_ctrl.wrQLenPdf::34                       0                       # What write queue length does an incoming req see
system.mem_ctrl.wrQLenPdf::35                       0                       # What write queue length does an incoming req see
system.mem_ctrl.wrQLenPdf::36                       0                       # What write queue length does an incoming req see
system.mem_ctrl.wrQLenPdf::37                       0                       # What write queue length does an incoming req see
system.mem_ctrl.wrQLenPdf::38                       0                       # What write queue length does an incoming req see
system.mem_ctrl.wrQLenPdf::39                       0                       # What write queue length does an incoming req see
system.mem_ctrl.wrQLenPdf::40                       0                       # What write queue length does an incoming req see
system.mem_ctrl.wrQLenPdf::41                       0                       # What write queue length does an incoming req see
system.mem_ctrl.wrQLenPdf::42                       0                       # What write queue length does an incoming req see
system.mem_ctrl.wrQLenPdf::43                       0                       # What write queue length does an incoming req see
system.mem_ctrl.wrQLenPdf::44                       0                       # What write queue length does an incoming req see
system.mem_ctrl.wrQLenPdf::45                       0                       # What write queue length does an incoming req see
system.mem_ctrl.wrQLenPdf::46                       0                       # What write queue length does an incoming req see
system.mem_ctrl.wrQLenPdf::47                       0                       # What write queue length does an incoming req see
system.mem_ctrl.wrQLenPdf::48                       0                       # What write queue length does an incoming req see
system.mem_ctrl.wrQLenPdf::49                       0                       # What write queue length does an incoming req see
system.mem_ctrl.wrQLenPdf::50                       0                       # What write queue length does an incoming req see
system.mem_ctrl.wrQLenPdf::51                       0                       # What write queue length does an incoming req see
system.mem_ctrl.wrQLenPdf::52                       0                       # What write queue length does an incoming req see
system.mem_ctrl.wrQLenPdf::53                       0                       # What write queue length does an incoming req see
system.mem_ctrl.wrQLenPdf::54                       0                       # What write queue length does an incoming req see
system.mem_ctrl.wrQLenPdf::55                       0                       # What write queue length does an incoming req see
system.mem_ctrl.wrQLenPdf::56                       0                       # What write queue length does an incoming req see
system.mem_ctrl.wrQLenPdf::57                       0                       # What write queue length does an incoming req see
system.mem_ctrl.wrQLenPdf::58                       0                       # What write queue length does an incoming req see
system.mem_ctrl.wrQLenPdf::59                       0                       # What write queue length does an incoming req see
system.mem_ctrl.wrQLenPdf::60                       0                       # What write queue length does an incoming req see
system.mem_ctrl.wrQLenPdf::61                       0                       # What write queue length does an incoming req see
system.mem_ctrl.wrQLenPdf::62                       0                       # What write queue length does an incoming req see
system.mem_ctrl.wrQLenPdf::63                       0                       # What write queue length does an incoming req see
system.mem_ctrl.rdPerTurnAround::samples        11365                       # Reads before turning the bus around for writes
system.mem_ctrl.rdPerTurnAround::mean       35.733832                       # Reads before turning the bus around for writes
system.mem_ctrl.rdPerTurnAround::gmean      28.815126                       # Reads before turning the bus around for writes
system.mem_ctrl.rdPerTurnAround::stdev      53.867138                       # Reads before turning the bus around for writes
system.mem_ctrl.rdPerTurnAround::0-255          11309     99.51%     99.51% # Reads before turning the bus around for writes
system.mem_ctrl.rdPerTurnAround::256-511           55      0.48%     99.99% # Reads before turning the bus around for writes
system.mem_ctrl.rdPerTurnAround::4352-4607            1      0.01%    100.00% # Reads before turning the bus around for writes
system.mem_ctrl.rdPerTurnAround::total          11365                       # Reads before turning the bus around for writes
system.mem_ctrl.wrPerTurnAround::samples        11364                       # Writes before turning the bus around for reads
system.mem_ctrl.wrPerTurnAround::mean       17.380148                       # Writes before turning the bus around for reads
system.mem_ctrl.wrPerTurnAround::gmean      17.356151                       # Writes before turning the bus around for reads
system.mem_ctrl.wrPerTurnAround::stdev       0.900085                       # Writes before turning the bus around for reads
system.mem_ctrl.wrPerTurnAround::16              3247     28.57%     28.57% # Writes before turning the bus around for reads
system.mem_ctrl.wrPerTurnAround::17               567      4.99%     33.56% # Writes before turning the bus around for reads
system.mem_ctrl.wrPerTurnAround::18              7533     66.29%     99.85% # Writes before turning the bus around for reads
system.mem_ctrl.wrPerTurnAround::19                17      0.15%    100.00% # Writes before turning the bus around for reads
system.mem_ctrl.wrPerTurnAround::total          11364                       # Writes before turning the bus around for reads
system.mem_ctrl.bytesReadWrQ                   643520                       # Total number of bytes read from write queue
system.mem_ctrl.bytesReadSys                 26634880                       # Total read bytes from the system interface side
system.mem_ctrl.bytesWrittenSys              12642624                       # Total written bytes from the system interface side
system.mem_ctrl.avgRdBWSys                      11.48                       # Average system read bandwidth in MiByte/s
system.mem_ctrl.avgWrBWSys                       5.45                       # Average system write bandwidth in MiByte/s
system.mem_ctrl.totGap                   2319999893000                       # Total gap between requests
system.mem_ctrl.avgGap                     3780280.77                       # Average gap between requests
system.mem_ctrl.requestorReadBytes::.cpu.inst      3620224                       # Per-requestor bytes read from memory
system.mem_ctrl.requestorReadBytes::.cpu.data     22371136                       # Per-requestor bytes read from memory
system.mem_ctrl.requestorWriteBytes::.writebacks     12640832                       # Per-requestor bytes write to memory
[...]
system.mem_ctrl.requestorReadRate::.cpu.data 9642731.346208987758                       # Per-requestor bytes read from memory rate (Bytes/sec)
system.mem_ctrl.requestorWriteRate::.writebacks 5448634.658899827860                       # Per-requestor bytes write to memory rate (Bytes/sec)
system.mem_ctrl.requestorReadAccesses::.cpu.inst        56566                       # Per-requestor read serviced memory accesses
system.mem_ctrl.requestorReadAccesses::.cpu.data       359604                       # Per-requestor read serviced memory accesses
system.mem_ctrl.requestorWriteAccesses::.writebacks       197541                       # Per-requestor write serviced memory accesses
system.mem_ctrl.requestorReadTotalLat::.cpu.inst   1438163250                       # Per-requestor read total memory access latency
system.mem_ctrl.requestorReadTotalLat::.cpu.data  10263663750                       # Per-requestor read total memory access latency
system.mem_ctrl.requestorWriteTotalLat::.writebacks 54316569577500                       # Per-requestor write total memory access latency
system.mem_ctrl.requestorReadAvgLat::.cpu.inst     25424.52                       # Per-requestor read average memory access latency
system.mem_ctrl.requestorReadAvgLat::.cpu.data     28541.57                       # Per-requestor read average memory access latency
system.mem_ctrl.requestorWriteAvgLat::.writebacks 274963524.42                       # Per-requestor write average memory access latency
system.mem_ctrl.dram.bytes_read::.cpu.inst      3620224                       # Number of bytes read from this memory
system.mem_ctrl.dram.bytes_read::.cpu.data     23014656                       # Number of bytes read from this memory
system.mem_ctrl.dram.bytes_read::total       26634880                       # Number of bytes read from this memory
system.mem_ctrl.dram.bytes_inst_read::.cpu.inst      3620224                       # Number of instructions bytes read from this memory
system.mem_ctrl.dram.bytes_inst_read::total      3620224                       # Number of instructions bytes read from this memory
system.mem_ctrl.dram.bytes_written::.writebacks     12642624                       # Number of bytes written to this memory
system.mem_ctrl.dram.bytes_written::total     12642624                       # Number of bytes written to this memory
system.mem_ctrl.dram.num_reads::.cpu.inst        56566                       # Number of read requests responded to by this memory
system.mem_ctrl.dram.num_reads::.cpu.data       359604                       # Number of read requests responded to by this memory
system.mem_ctrl.dram.num_reads::total          416170                       # Number of read requests responded to by this memory
system.mem_ctrl.dram.num_writes::.writebacks       197541                       # Number of write requests responded to by this memory
system.mem_ctrl.dram.num_writes::total         197541                       # Number of write requests responded to by this memory
system.mem_ctrl.dram.bw_read::.cpu.inst       1560441                       # Total read bandwidth from this memory (bytes/s)
system.mem_ctrl.dram.bw_read::.cpu.data       9920111                       # Total read bandwidth from this memory (bytes/s)
system.mem_ctrl.dram.bw_read::total          11480552                       # Total read bandwidth from this memory (bytes/s)
system.mem_ctrl.dram.bw_inst_read::.cpu.inst      1560441                       # Instruction read bandwidth from this memory (bytes/s)
system.mem_ctrl.dram.bw_inst_read::total      1560441                       # Instruction read bandwidth from this memory (bytes/s)
system.mem_ctrl.dram.bw_write::.writebacks      5449407                       # Write bandwidth from this memory (bytes/s)
system.mem_ctrl.dram.bw_write::total          5449407                       # Write bandwidth from this memory (bytes/s)
system.mem_ctrl.dram.bw_total::.writebacks      5449407                       # Total bandwidth to/from this memory (bytes/s)
system.mem_ctrl.dram.bw_total::.cpu.inst      1560441                       # Total bandwidth to/from this memory (bytes/s)
system.mem_ctrl.dram.bw_total::.cpu.data      9920111                       # Total bandwidth to/from this memory (bytes/s)
system.mem_ctrl.dram.bw_total::total         16929959                       # Total bandwidth to/from this memory (bytes/s)
system.mem_ctrl.dram.readBursts                406115                       # Number of DRAM read bursts
system.mem_ctrl.dram.writeBursts               197513                       # Number of DRAM write bursts
system.mem_ctrl.dram.perBankRdBursts::0         22838                       # Per bank write bursts
system.mem_ctrl.dram.perBankRdBursts::1         21889                       # Per bank write bursts
system.mem_ctrl.dram.perBankRdBursts::2         17912                       # Per bank write bursts
system.mem_ctrl.dram.perBankRdBursts::3         21526                       # Per bank write bursts
system.mem_ctrl.dram.perBankRdBursts::4         26613                       # Per bank write bursts
system.mem_ctrl.dram.perBankRdBursts::5         31285                       # Per bank write bursts
system.mem_ctrl.dram.perBankRdBursts::6         23256                       # Per bank write bursts
system.mem_ctrl.dram.perBankRdBursts::7         29983                       # Per bank write bursts
system.mem_ctrl.dram.perBankRdBursts::8         28116                       # Per bank write bursts
system.mem_ctrl.dram.perBankRdBursts::9         30331                       # Per bank write bursts
system.mem_ctrl.dram.perBankRdBursts::10        27615                       # Per bank write bursts
system.mem_ctrl.dram.perBankRdBursts::11        32524                       # Per bank write bursts
system.mem_ctrl.dram.perBankRdBursts::12        23377                       # Per bank write bursts
system.mem_ctrl.dram.perBankRdBursts::13        26995                       # Per bank write bursts
system.mem_ctrl.dram.perBankRdBursts::14        18551                       # Per bank write bursts
system.mem_ctrl.dram.perBankRdBursts::15        23304                       # Per bank write bursts
system.mem_ctrl.dram.perBankWrBursts::0         12448                       # Per bank write bursts
system.mem_ctrl.dram.perBankWrBursts::1          9189                       # Per bank write bursts
system.mem_ctrl.dram.perBankWrBursts::2          7098                       # Per bank write bursts
system.mem_ctrl.dram.perBankWrBursts::3          9607                       # Per bank write bursts
system.mem_ctrl.dram.perBankWrBursts::4         11127                       # Per bank write bursts
system.mem_ctrl.dram.perBankWrBursts::5         19999                       # Per bank write bursts
system.mem_ctrl.dram.perBankWrBursts::6         14230                       # Per bank write bursts
system.mem_ctrl.dram.perBankWrBursts::7         17709                       # Per bank write bursts
system.mem_ctrl.dram.perBankWrBursts::8         15190                       # Per bank write bursts
system.mem_ctrl.dram.perBankWrBursts::9         17380                       # Per bank write bursts
system.mem_ctrl.dram.perBankWrBursts::10        11330                       # Per bank write bursts
system.mem_ctrl.dram.perBankWrBursts::11         9967                       # Per bank write bursts
system.mem_ctrl.dram.perBankWrBursts::12        11489                       # Per bank write bursts
system.mem_ctrl.dram.perBankWrBursts::13        10783                       # Per bank write bursts
system.mem_ctrl.dram.perBankWrBursts::14         8511                       # Per bank write bursts
system.mem_ctrl.dram.perBankWrBursts::15        11456                       # Per bank write bursts
system.mem_ctrl.dram.totQLat               4087170750                       # Total ticks spent queuing
system.mem_ctrl.dram.totBusLat             2030575000                       # Total ticks spent in databus transfers
system.mem_ctrl.dram.totMemAccLat         11701827000                       # Total ticks spent from burst creation until serviced by the DRAM
system.mem_ctrl.dram.avgQLat                 10064.07                       # Average queueing delay per DRAM burst
system.mem_ctrl.dram.avgBusLat                5000.00                       # Average bus latency per DRAM burst
system.mem_ctrl.dram.avgMemAccLat            28814.07                       # Average memory access latency per DRAM burst
system.mem_ctrl.dram.readRowHits               265828                       # Number of row buffer hits during reads
system.mem_ctrl.dram.writeRowHits              164252                       # Number of row buffer hits during writes
system.mem_ctrl.dram.readRowHitRate             65.46                       # Row buffer hit rate for reads
system.mem_ctrl.dram.writeRowHitRate            83.16                       # Row buffer hit rate for writes
system.mem_ctrl.dram.bytesPerActivate::samples       173543                       # Bytes accessed per row activation
system.mem_ctrl.dram.bytesPerActivate::mean   222.604703                       # Bytes accessed per row activation
system.mem_ctrl.dram.bytesPerActivate::gmean   138.135173                       # Bytes accessed per row activation
system.mem_ctrl.dram.bytesPerActivate::stdev   256.166696                       # Bytes accessed per row activation
system.mem_ctrl.dram.bytesPerActivate::0-127        85340     49.18%     49.18% # Bytes accessed per row activation
system.mem_ctrl.dram.bytesPerActivate::128-255        36444     21.00%     70.18% # Bytes accessed per row activation
system.mem_ctrl.dram.bytesPerActivate::256-383        17993     10.37%     80.54% # Bytes accessed per row activation
system.mem_ctrl.dram.bytesPerActivate::384-511        12136      6.99%     87.54% # Bytes accessed per row activation
system.mem_ctrl.dram.bytesPerActivate::512-639         4993      2.88%     90.41% # Bytes accessed per row activation
system.mem_ctrl.dram.bytesPerActivate::640-767         3513      2.02%     92.44% # Bytes accessed per row activation
system.mem_ctrl.dram.bytesPerActivate::768-895         2761      1.59%     94.03% # Bytes accessed per row activation
system.mem_ctrl.dram.bytesPerActivate::896-1023         2135      1.23%     95.26% # Bytes accessed per row activation
system.mem_ctrl.dram.bytesPerActivate::1024-1151         8228      4.74%    100.00% # Bytes accessed per row activation
system.mem_ctrl.dram.bytesPerActivate::total       173543                       # Bytes accessed per row activation
system.mem_ctrl.dram.bytesRead               25991360                       # Total number of bytes read from DRAM
system.mem_ctrl.dram.bytesWritten            12640832                       # Total number of bytes written to DRAM
system.mem_ctrl.dram.avgRdBW                11.203173                       # Average DRAM read bandwidth in MiBytes/s
system.mem_ctrl.dram.avgWrBW                 5.448635                       # Average DRAM write bandwidth in MiBytes/s
system.mem_ctrl.dram.peakBW                  12800.00                       # Theoretical peak bandwidth in MiByte/s
system.mem_ctrl.dram.busUtil                     0.13                       # Data bus utilization in percentage
system.mem_ctrl.dram.busUtilRead                 0.09                       # Data bus utilization in percentage for reads
system.mem_ctrl.dram.busUtilWrite                0.04                       # Data bus utilization in percentage for writes
system.mem_ctrl.dram.pageHitRate                71.25                       # Row buffer hit rate, read and write combined
system.mem_ctrl.dram.power_state.pwrStateResidencyTicks::UNDEFINED 2319999925000                       # Cumulative time (in ticks) in various power states
system.mem_ctrl.dram.rank0.actEnergy        576162300                       # Energy for activate commands per rank (pJ)
system.mem_ctrl.dram.rank0.preEnergy        306226140                       # Energy for precharge commands per rank (pJ)
system.mem_ctrl.dram.rank0.readEnergy      1394456280                       # Energy for read commands per rank (pJ)
system.mem_ctrl.dram.rank0.writeEnergy      529318440                       # Energy for write commands per rank (pJ)
system.mem_ctrl.dram.rank0.refreshEnergy 183138749040.000031                       # Energy for refresh commands per rank (pJ)
system.mem_ctrl.dram.rank0.actBackEnergy 117551757210                       # Energy for active background per rank (pJ)
system.mem_ctrl.dram.rank0.preBackEnergy 791889017760                       # Energy for precharge background per rank (pJ)
system.mem_ctrl.dram.rank0.actPowerDownEnergy            0                       # Energy for active power-down per rank (pJ)
system.mem_ctrl.dram.rank0.prePowerDownEnergy            0                       # Energy for precharge power-down per rank (pJ)
system.mem_ctrl.dram.rank0.selfRefreshEnergy            0                       # Energy for self refresh per rank (pJ)
system.mem_ctrl.dram.rank0.totalEnergy   1095385687170                       # Total energy per rank (pJ)
system.mem_ctrl.dram.rank0.averagePower    472.149018                       # Core power per rank (mW)
system.mem_ctrl.dram.rank0.totalIdleTime            0                       # Total Idle time Per DRAM Rank
system.mem_ctrl.dram.rank0.pwrStateTime::IDLE 2057587196500                       # Time in different power states
system.mem_ctrl.dram.rank0.pwrStateTime::REF  77469860000                       # Time in different power states
system.mem_ctrl.dram.rank0.pwrStateTime::SREF            0                       # Time in different power states
system.mem_ctrl.dram.rank0.pwrStateTime::PRE_PDN            0                       # Time in different power states
system.mem_ctrl.dram.rank0.pwrStateTime::ACT 184942868500                       # Time in different power states
system.mem_ctrl.dram.rank0.pwrStateTime::ACT_PDN            0                       # Time in different power states
system.mem_ctrl.dram.rank1.actEnergy        662963280                       # Energy for activate commands per rank (pJ)
system.mem_ctrl.dram.rank1.preEnergy        352369545                       # Energy for precharge commands per rank (pJ)
system.mem_ctrl.dram.rank1.readEnergy      1505204820                       # Energy for read commands per rank (pJ)
system.mem_ctrl.dram.rank1.writeEnergy      501673320                       # Energy for write commands per rank (pJ)
system.mem_ctrl.dram.rank1.refreshEnergy 183138749040.000031                       # Energy for refresh commands per rank (pJ)
system.mem_ctrl.dram.rank1.actBackEnergy 112955066310                       # Energy for active background per rank (pJ)
system.mem_ctrl.dram.rank1.preBackEnergy 795759915360                       # Energy for precharge background per rank (pJ)
system.mem_ctrl.dram.rank1.actPowerDownEnergy            0                       # Energy for active power-down per rank (pJ)
system.mem_ctrl.dram.rank1.prePowerDownEnergy            0                       # Energy for precharge power-down per rank (pJ)
system.mem_ctrl.dram.rank1.selfRefreshEnergy            0                       # Energy for self refresh per rank (pJ)
system.mem_ctrl.dram.rank1.totalEnergy   1094875941675                       # Total energy per rank (pJ)
system.mem_ctrl.dram.rank1.averagePower    471.929300                       # Core power per rank (mW)
system.mem_ctrl.dram.rank1.totalIdleTime            0                       # Total Idle time Per DRAM Rank
system.mem_ctrl.dram.rank1.pwrStateTime::IDLE 2067687971250                       # Time in different power states
system.mem_ctrl.dram.rank1.pwrStateTime::REF  77469860000                       # Time in different power states
system.mem_ctrl.dram.rank1.pwrStateTime::SREF            0                       # Time in different power states
system.mem_ctrl.dram.rank1.pwrStateTime::PRE_PDN            0                       # Time in different power states
system.mem_ctrl.dram.rank1.pwrStateTime::ACT 174842093750                       # Time in different power states
system.mem_ctrl.dram.rank1.pwrStateTime::ACT_PDN            0                       # Time in different power states
system.mem_ctrl.power_state.pwrStateResidencyTicks::UNDEFINED 2319999925000                       # Cumulative time (in ticks) in various power states
system.membus.trans_dist::ReadResp             303050                       # Transaction distribution
system.membus.trans_dist::WritebackDirty       197541                       # Transaction distribution
system.membus.trans_dist::CleanEvict           214494                       # Transaction distribution
system.membus.trans_dist::ReadExReq            113120                       # Transaction distribution
system.membus.trans_dist::ReadExResp           113120                       # Transaction distribution
system.membus.trans_dist::ReadSharedReq        303050                       # Transaction distribution
system.membus.pkt_count_system.l2cache.mem_side_port::system.mem_ctrl.port      1244375                       # Packet count per connected requestor and responder (bytes)
system.membus.pkt_count_system.l2cache.mem_side_port::total      1244375                       # Packet count per connected requestor and responder (bytes)
system.membus.pkt_count::total                1244375                       # Packet count per connected requestor and responder (bytes)
system.membus.pkt_size_system.l2cache.mem_side_port::system.mem_ctrl.port     39277504                       # Cumulative packet size per connected requestor and responder (bytes)
system.membus.pkt_size_system.l2cache.mem_side_port::total     39277504                       # Cumulative packet size per connected requestor and responder (bytes)
system.membus.pkt_size::total                39277504                       # Cumulative packet size per connected requestor and responder (bytes)
system.membus.snoops                                0                       # Total snoops (count)
system.membus.snoopTraffic                          0                       # Total snoop traffic (bytes)
system.membus.snoop_fanout::samples            416170                       # Request fanout histogram
system.membus.snoop_fanout::mean                    0                       # Request fanout histogram
system.membus.snoop_fanout::stdev                   0                       # Request fanout histogram
system.membus.snoop_fanout::underflows              0      0.00%      0.00% # Request fanout histogram
system.membus.snoop_fanout::0                  416170    100.00%    100.00% # Request fanout histogram
system.membus.snoop_fanout::1                       0      0.00%    100.00% # Request fanout histogram
system.membus.snoop_fanout::overflows               0      0.00%    100.00% # Request fanout histogram
system.membus.snoop_fanout::min_value               0                       # Request fanout histogram
system.membus.snoop_fanout::max_value               0                       # Request fanout histogram
system.membus.snoop_fanout::total              416170                       # Request fanout histogram
system.membus.power_state.pwrStateResidencyTicks::UNDEFINED 2319999925000                       # Cumulative time (in ticks) in various power states
system.membus.reqLayer2.occupancy          1618369000                       # Layer occupancy (ticks)
system.membus.reqLayer2.utilization               0.1                       # Layer utilization (%)
system.membus.respLayer0.occupancy         2219242000                       # Layer occupancy (ticks)
system.membus.respLayer0.utilization              0.1                       # Layer utilization (%)

---------- End Simulation Statistics   ----------
