
---------- Begin Simulation Statistics ----------
final_tick                                   69207000                       # Number of ticks from beginning of simulation (restored from checkpoints and never reset)
host_inst_rate                                  93768                       # Simulator instruction rate (inst/s)
host_mem_usage                                 641244                       # Number of bytes of host memory used
host_op_rate                                   171272                       # Simulator op (including micro ops) rate (op/s)
host_seconds                                     0.53                       # Real time elapsed on the host
host_tick_rate                              129369606                       # Simulator tick rate (ticks/s)
sim_freq                                 1000000000000                       # Frequency of simulated ticks
sim_insts                                       50138                       # Number of instructions simulated
sim_ops                                         91614                       # Number of ops (including micro ops) simulated
sim_seconds                                  0.000069                       # Number of seconds simulated
sim_ticks                                    69207000                       # Number of ticks simulated
system.cpu.cc_regfile_reads                     53592                       # number of cc regfile reads
system.cpu.cc_regfile_writes                    40907                       # number of cc regfile writes
system.cpu.committedInsts                       50138                       # Number of Instructions Simulated
system.cpu.committedOps                         91614                       # Number of Ops (including micro ops) Simulated
system.cpu.cpi                               1.380350                       # CPI: Cycles Per Instruction
system.cpu.cpi_total                         1.380350                       # CPI: Total CPI of All Threads
system.cpu.fp_regfile_reads                      1737                       # number of floating regfile reads
system.cpu.fp_regfile_writes                      805                       # number of floating regfile writes
system.cpu.idleCycles                           22215                       # Total number of cycles that the CPU has spent unscheduled due to idling
system.cpu.iew.branchMispredicts                  677                       # Number of branch mispredicts detected at execute
system.cpu.iew.exec_branches                    10861                       # Number of branches executed
system.cpu.iew.exec_nop                             0                       # number of nop insts executed
system.cpu.iew.exec_rate                     1.465698                       # Inst execution rate
system.cpu.iew.exec_refs                         5138                       # number of memory reference insts executed
system.cpu.iew.exec_stores                       2123                       # Number of stores executed
system.cpu.iew.exec_swp                             0                       # number of swp insts executed
system.cpu.iew.iewBlockCycles                    2131                       # Number of cycles IEW is blocking
system.cpu.iew.iewDispLoadInsts                  3402                       # Number of dispatched load instructions
system.cpu.iew.iewDispNonSpecInsts                  0                       # Number of dispatched non-speculative instructions
system.cpu.iew.iewDispSquashedInsts                80                       # Number of squashed instructions skipped by dispatch
system.cpu.iew.iewDispStoreInsts                 2573                       # Number of dispatched store instructions
system.cpu.iew.iewDispatchedInsts              105873                       # Number of instructions dispatched to IQ
system.cpu.iew.iewExecLoadInsts                  3015                       # Number of load instructions executed
system.cpu.iew.iewExecSquashedInsts               916                       # Number of squashed instructions skipped in execute
system.cpu.iew.iewExecutedInsts                101438                       # Number of executed instructions
system.cpu.iew.iewIQFullEvents                     13                       # Number of times the IQ has become full, causing a stall
system.cpu.iew.iewIdleCycles                        0                       # Number of cycles IEW is idle
system.cpu.iew.iewLSQFullEvents                   676                       # Number of times the LSQ has become full, causing a stall
system.cpu.iew.iewSquashCycles                    589                       # Number of cycles IEW is squashing
system.cpu.iew.iewUnblockCycles                   693                       # Number of cycles IEW is unblocking
system.cpu.iew.memOrderViolationEvents             13                       # Number of memory order violations
system.cpu.iew.predictedNotTakenIncorrect          593                       # Number of branches that were predicted not taken incorrectly
system.cpu.iew.predictedTakenIncorrect             84                       # Number of branches that were predicted taken incorrectly
system.cpu.iew.wb_consumers                    142971                       # num instructions consuming a value
system.cpu.iew.wb_count                        100651                       # cumulative count of insts written-back
system.cpu.iew.wb_fanout                     0.589168                       # average fanout of values written-back
system.cpu.iew.wb_producers                     84234                       # num instructions producing a value
system.cpu.iew.wb_rate                       1.454326                       # insts written-back per cycle
system.cpu.iew.wb_sent                         100927                       # cumulative count of insts sent to commit
system.cpu.int_regfile_reads                   134851                       # number of integer regfile reads
system.cpu.int_regfile_writes                   86543                       # number of integer regfile writes
system.cpu.ipc                               0.724454                       # IPC: Instructions Per Cycle
system.cpu.ipc_total                         0.724454                       # IPC: Total IPC of All Threads
system.cpu.iq.FU_type_0::No_OpClass               653      0.64%      0.64% # Type of FU issued
system.cpu.iq.FU_type_0::IntAlu                 95651     93.45%     94.08% # Type of FU issued
system.cpu.iq.FU_type_0::IntMult                    6      0.01%     94.09% # Type of FU issued
system.cpu.iq.FU_type_0::IntDiv                    30      0.03%     94.12% # Type of FU issued
system.cpu.iq.FU_type_0::FloatAdd                 136      0.13%     94.25% # Type of FU issued
system.cpu.iq.FU_type_0::FloatCmp                   0      0.00%     94.25% # Type of FU issued
system.cpu.iq.FU_type_0::FloatCvt                   0      0.00%     94.25% # Type of FU issued
system.cpu.iq.FU_type_0::FloatMult                  0      0.00%     94.25% # Type of FU issued
system.cpu.iq.FU_type_0::FloatMultAcc               0      0.00%     94.25% # Type of FU issued
system.cpu.iq.FU_type_0::FloatDiv                   0      0.00%     94.25% # Type of FU issued
system.cpu.iq.FU_type_0::FloatMisc                  0      0.00%     94.25% # Type of FU issued
system.cpu.iq.FU_type_0::FloatSqrt                  0      0.00%     94.25% # Type of FU issued
system.cpu.iq.FU_type_0::SimdAdd                    0      0.00%     94.25% # Type of FU issued
system.cpu.iq.FU_type_0::SimdAddAcc                 0      0.00%     94.25% # Type of FU issued
system.cpu.iq.FU_type_0::SimdAlu                  164      0.16%     94.41% # Type of FU issued
system.cpu.iq.FU_type_0::SimdCmp                   12      0.01%     94.42% # Type of FU issued
system.cpu.iq.FU_type_0::SimdCvt                   78      0.08%     94.50% # Type of FU issued
system.cpu.iq.FU_type_0::SimdMisc                 248      0.24%     94.74% # Type of FU issued
system.cpu.iq.FU_type_0::SimdMult                   0      0.00%     94.74% # Type of FU issued
system.cpu.iq.FU_type_0::SimdMultAcc                0      0.00%     94.74% # Type of FU issued
system.cpu.iq.FU_type_0::SimdShift                  0      0.00%     94.74% # Type of FU issued
system.cpu.iq.FU_type_0::SimdShiftAcc               0      0.00%     94.74% # Type of FU issued
system.cpu.iq.FU_type_0::SimdDiv                    0      0.00%     94.74% # Type of FU issued
system.cpu.iq.FU_type_0::SimdSqrt                   0      0.00%     94.74% # Type of FU issued
system.cpu.iq.FU_type_0::SimdFloatAdd               0      0.00%     94.74% # Type of FU issued
system.cpu.iq.FU_type_0::SimdFloatAlu               0      0.00%     94.74% # Type of FU issued
system.cpu.iq.FU_type_0::SimdFloatCmp               0      0.00%     94.74% # Type of FU issued
system.cpu.iq.FU_type_0::SimdFloatCvt               0      0.00%     94.74% # Type of FU issued
system.cpu.iq.FU_type_0::SimdFloatDiv               0      0.00%     94.74% # Type of FU issued
system.cpu.iq.FU_type_0::SimdFloatMisc              0      0.00%     94.74% # Type of FU issued
system.cpu.iq.FU_type_0::SimdFloatMult              0      0.00%     94.74% # Type of FU issued
system.cpu.iq.FU_type_0::SimdFloatMultAcc            0      0.00%     94.74% # Type of FU issued
system.cpu.iq.FU_type_0::SimdFloatSqrt              0      0.00%     94.74% # Type of FU issued
system.cpu.iq.FU_type_0::SimdReduceAdd              0      0.00%     94.74% # Type of FU issued
system.cpu.iq.FU_type_0::SimdReduceAlu              0      0.00%     94.74% # Type of FU issued
system.cpu.iq.FU_type_0::SimdReduceCmp              0      0.00%     94.74% # Type of FU issued
system.cpu.iq.FU_type_0::SimdFloatReduceAdd            0      0.00%     94.74% # Type of FU issued
system.cpu.iq.FU_type_0::SimdFloatReduceCmp            0      0.00%     94.74% # Type of FU issued
system.cpu.iq.FU_type_0::SimdAes                    0      0.00%     94.74% # Type of FU issued
system.cpu.iq.FU_type_0::SimdAesMix                 0      0.00%     94.74% # Type of FU issued
system.cpu.iq.FU_type_0::SimdSha1Hash               0      0.00%     94.74% # Type of FU issued
system.cpu.iq.FU_type_0::SimdSha1Hash2              0      0.00%     94.74% # Type of FU issued
system.cpu.iq.FU_type_0::SimdSha256Hash             0      0.00%     94.74% # Type of FU issued
system.cpu.iq.FU_type_0::SimdSha256Hash2            0      0.00%     94.74% # Type of FU issued
system.cpu.iq.FU_type_0::SimdShaSigma2              0      0.00%     94.74% # Type of FU issued
system.cpu.iq.FU_type_0::SimdShaSigma3              0      0.00%     94.74% # Type of FU issued
system.cpu.iq.FU_type_0::SimdPredAlu                0      0.00%     94.74% # Type of FU issued
system.cpu.iq.FU_type_0::MemRead                 3079      3.01%     97.75% # Type of FU issued
system.cpu.iq.FU_type_0::MemWrite                1654      1.62%     99.37% # Type of FU issued
system.cpu.iq.FU_type_0::FloatMemRead             105      0.10%     99.47% # Type of FU issued
system.cpu.iq.FU_type_0::FloatMemWrite            544      0.53%    100.00% # Type of FU issued
system.cpu.iq.FU_type_0::IprAccess                  0      0.00%    100.00% # Type of FU issued
system.cpu.iq.FU_type_0::InstPrefetch               0      0.00%    100.00% # Type of FU issued
system.cpu.iq.FU_type_0::total                 102360                       # Type of FU issued
system.cpu.iq.fp_alu_accesses                    1507                       # Number of floating point alu accesses
system.cpu.iq.fp_inst_queue_reads                2965                       # Number of floating instruction queue reads
system.cpu.iq.fp_inst_queue_wakeup_accesses         1413                       # Number of floating instruction queue wakeup accesses
system.cpu.iq.fp_inst_queue_writes               1737                       # Number of floating instruction queue writes
system.cpu.iq.fu_busy_cnt                         444                       # FU busy when requested
system.cpu.iq.fu_busy_rate                   0.004338                       # FU busy rate (busy events/executed inst)
system.cpu.iq.fu_full::No_OpClass                   0      0.00%      0.00% # attempts to use FU when none available
system.cpu.iq.fu_full::IntAlu                     343     77.25%     77.25% # attempts to use FU when none available
system.cpu.iq.fu_full::IntMult                      0      0.00%     77.25% # attempts to use FU when none available
system.cpu.iq.fu_full::IntDiv                       0      0.00%     77.25% # attempts to use FU when none available
system.cpu.iq.fu_full::FloatAdd                     0      0.00%     77.25% # attempts to use FU when none available
system.cpu.iq.fu_full::FloatCmp                     0      0.00%     77.25% # attempts to use FU when none available
system.cpu.iq.fu_full::FloatCvt                     0      0.00%     77.25% # attempts to use FU when none available
system.cpu.iq.fu_full::FloatMult                    0      0.00%     77.25% # attempts to use FU when none available
system.cpu.iq.fu_full::FloatMultAcc                 0      0.00%     77.25% # attempts to use FU when none available
system.cpu.iq.fu_full::FloatDiv                     0      0.00%     77.25% # attempts to use FU when none available
system.cpu.iq.fu_full::FloatMisc                    0      0.00%     77.25% # attempts to use FU when none available
system.cpu.iq.fu_full::FloatSqrt                    0      0.00%     77.25% # attempts to use FU when none available
system.cpu.iq.fu_full::SimdAdd                      0      0.00%     77.25% # attempts to use FU when none available
system.cpu.iq.fu_full::SimdAddAcc                   0      0.00%     77.25% # attempts to use FU when none available
system.cpu.iq.fu_full::SimdAlu                     11      2.48%     79.73% # attempts to use FU when none available
system.cpu.iq.fu_full::SimdCmp                      0      0.00%     79.73% # attempts to use FU when none available
system.cpu.iq.fu_full::SimdCvt                      5      1.13%     80.86% # attempts to use FU when none available
system.cpu.iq.fu_full::SimdMisc                     5      1.13%     81.98% # attempts to use FU when none available
system.cpu.iq.fu_full::SimdMult                     0      0.00%     81.98% # attempts to use FU when none available
system.cpu.iq.fu_full::SimdMultAcc                  0      0.00%     81.98% # attempts to use FU when none available
system.cpu.iq.fu_full::SimdShift                    0      0.00%     81.98% # attempts to use FU when none available
system.cpu.iq.fu_full::SimdShiftAcc                 0      0.00%     81.98% # attempts to use FU when none available
system.cpu.iq.fu_full::SimdDiv                      0      0.00%     81.98% # attempts to use FU when none available
system.cpu.iq.fu_full::SimdSqrt                     0      0.00%     81.98% # attempts to use FU when none available
system.cpu.iq.fu_full::SimdFloatAdd                 0      0.00%     81.98% # attempts to use FU when none available
system.cpu.iq.fu_full::SimdFloatAlu                 0      0.00%     81.98% # attempts to use FU when none available
system.cpu.iq.fu_full::SimdFloatCmp                 0      0.00%     81.98% # attempts to use FU when none available
system.cpu.iq.fu_full::SimdFloatCvt                 0      0.00%     81.98% # attempts to use FU when none available
system.cpu.iq.fu_full::SimdFloatDiv                 0      0.00%     81.98% # attempts to use FU when none available
system.cpu.iq.fu_full::SimdFloatMisc                0      0.00%     81.98% # attempts to use FU when none available
system.cpu.iq.fu_full::SimdFloatMult                0      0.00%     81.98% # attempts to use FU when none available
system.cpu.iq.fu_full::SimdFloatMultAcc             0      0.00%     81.98% # attempts to use FU when none available
system.cpu.iq.fu_full::SimdFloatSqrt                0      0.00%     81.98% # attempts to use FU when none available
system.cpu.iq.fu_full::SimdReduceAdd                0      0.00%     81.98% # attempts to use FU when none available
system.cpu.iq.fu_full::SimdReduceAlu                0      0.00%     81.98% # attempts to use FU when none available
system.cpu.iq.fu_full::SimdReduceCmp                0      0.00%     81.98% # attempts to use FU when none available
system.cpu.iq.fu_full::SimdFloatReduceAdd            0      0.00%     81.98% # attempts to use FU when none available
system.cpu.iq.fu_full::SimdFloatReduceCmp            0      0.00%     81.98% # attempts to use FU when none available
system.cpu.iq.fu_full::SimdAes                      0      0.00%     81.98% # attempts to use FU when none available
system.cpu.iq.fu_full::SimdAesMix                   0      0.00%     81.98% # attempts to use FU when none available
system.cpu.iq.fu_full::SimdSha1Hash                 0      0.00%     81.98% # attempts to use FU when none available
system.cpu.iq.fu_full::SimdSha1Hash2                0      0.00%     81.98% # attempts to use FU when none available
system.cpu.iq.fu_full::SimdSha256Hash               0      0.00%     81.98% # attempts to use FU when none available
system.cpu.iq.fu_full::SimdSha256Hash2              0      0.00%     81.98% # attempts to use FU when none available
system.cpu.iq.fu_full::SimdShaSigma2                0      0.00%     81.98% # attempts to use FU when none available
system.cpu.iq.fu_full::SimdShaSigma3                0      0.00%     81.98% # attempts to use FU when none available
system.cpu.iq.fu_full::SimdPredAlu                  0      0.00%     81.98% # attempts to use FU when none available
system.cpu.iq.fu_full::MemRead                     24      5.41%     87.39% # attempts to use FU when none available
system.cpu.iq.fu_full::MemWrite                    17      3.83%     91.22% # attempts to use FU when none available
system.cpu.iq.fu_full::FloatMemRead                 6      1.35%     92.57% # attempts to use FU when none available
system.cpu.iq.fu_full::FloatMemWrite               33      7.43%    100.00% # attempts to use FU when none available
system.cpu.iq.fu_full::IprAccess                    0      0.00%    100.00% # attempts to use FU when none available
system.cpu.iq.fu_full::InstPrefetch                 0      0.00%    100.00% # attempts to use FU when none available
system.cpu.iq.int_alu_accesses                 100644                       # Number of integer alu accesses
system.cpu.iq.int_inst_queue_reads             249243                       # Number of integer instruction queue reads
system.cpu.iq.int_inst_queue_wakeup_accesses        99238                       # Number of integer instruction queue wakeup accesses
system.cpu.iq.int_inst_queue_writes            118394                       # Number of integer instruction queue writes
system.cpu.iq.iqInstsAdded                     105873                       # Number of instructions added to the IQ (excludes non-spec)
system.cpu.iq.iqInstsIssued                    102360                       # Number of instructions issued
system.cpu.iq.iqSquashedInstsExamined           14245                       # Number of squashed instructions iterated over during squash; mainly for profiling
system.cpu.iq.iqSquashedInstsIssued                57                       # Number of squashed instructions issued
system.cpu.iq.iqSquashedOperandsExamined        17172                       # Number of squashed operands that are examined and possibly removed from graph
system.cpu.iq.issued_per_cycle::samples         46993                       # Number of insts issued each cycle
system.cpu.iq.issued_per_cycle::mean         2.178197                       # Number of insts issued each cycle
system.cpu.iq.issued_per_cycle::stdev        2.438291                       # Number of insts issued each cycle
system.cpu.iq.issued_per_cycle::underflows            0      0.00%      0.00% # Number of insts issued each cycle
system.cpu.iq.issued_per_cycle::0               22361     47.58%     47.58% # Number of insts issued each cycle
system.cpu.iq.issued_per_cycle::1                1908      4.06%     51.64% # Number of insts issued each cycle
system.cpu.iq.issued_per_cycle::2                1437      3.06%     54.70% # Number of insts issued each cycle
system.cpu.iq.issued_per_cycle::3                9196     19.57%     74.27% # Number of insts issued each cycle
system.cpu.iq.issued_per_cycle::4                1215      2.59%     76.86% # Number of insts issued each cycle
system.cpu.iq.issued_per_cycle::5                1062      2.26%     79.12% # Number of insts issued each cycle
system.cpu.iq.issued_per_cycle::6                9107     19.38%     98.50% # Number of insts issued each cycle
system.cpu.iq.issued_per_cycle::7                 478      1.02%     99.51% # Number of insts issued each cycle
system.cpu.iq.issued_per_cycle::8                 229      0.49%    100.00% # Number of insts issued each cycle
system.cpu.iq.issued_per_cycle::overflows            0      0.00%    100.00% # Number of insts issued each cycle
system.cpu.iq.issued_per_cycle::min_value            0                       # Number of insts issued each cycle
system.cpu.iq.issued_per_cycle::max_value            8                       # Number of insts issued each cycle
system.cpu.iq.issued_per_cycle::total           46993                       # Number of insts issued each cycle
system.cpu.iq.rate                           1.479020                       # Inst issue rate
system.cpu.iq.vec_alu_accesses                      0                       # Number of vector alu accesses
system.cpu.iq.vec_inst_queue_reads                  0                       # Number of vector instruction queue reads
system.cpu.iq.vec_inst_queue_wakeup_accesses            0                       # Number of vector instruction queue wakeup accesses
system.cpu.iq.vec_inst_queue_writes                 0                       # Number of vector instruction queue writes
system.cpu.memDep0.conflictingLoads                22                       # Number of conflicting loads.
system.cpu.memDep0.conflictingStores               11                       # Number of conflicting stores.
system.cpu.memDep0.insertedLoads                 3402                       # Number of loads inserted to the mem dependence unit.
system.cpu.memDep0.insertedStores                2573                       # Number of stores inserted to the mem dependence unit.
system.cpu.misc_regfile_reads                   28033                       # number of misc regfile reads
system.cpu.numCycles                            69208                       # number of cpu cycles simulated
system.cpu.numWorkItemsCompleted                    0                       # number of work items this cpu completed
system.cpu.numWorkItemsStarted                      0                       # number of work items this cpu started
system.cpu.timesIdled                             312                       # Number of times that the entire CPU went into an idle state and unscheduled itself
system.cpu.workload.numSyscalls                    10                       # Number of system calls
system.l2bus.snoop_filter.hit_multi_requests            0                       # Number of requests hitting in the snoop filter with multiple (>1) holders of the requested data.
system.l2bus.snoop_filter.hit_multi_snoops            0                       # Number of snoops hitting in the snoop filter with multiple (>1) holders of the requested data.
system.l2bus.snoop_filter.hit_single_requests          249                       # Number of requests hitting in the snoop filter with a single holder of the requested data.
system.l2bus.snoop_filter.hit_single_snoops          729                       # Number of snoops hitting in the snoop filter with a single holder of the requested data.
system.l2bus.snoop_filter.tot_requests            987                       # Total number of requests made to the snoop filter.
system.l2bus.snoop_filter.tot_snoops              729                       # Total number of snoops made to the snoop filter.
system.membus.snoop_filter.hit_multi_requests            0                       # Number of requests hitting in the snoop filter with multiple (>1) holders of the requested data.
system.membus.snoop_filter.hit_multi_snoops            0                       # Number of snoops hitting in the snoop filter with multiple (>1) holders of the requested data.
system.membus.snoop_filter.hit_single_requests          247                       # Number of requests hitting in the snoop filter with a single holder of the requested data.
system.membus.snoop_filter.hit_single_snoops            0                       # Number of snoops hitting in the snoop filter with a single holder of the requested data.
system.membus.snoop_filter.tot_requests           985                       # Total number of requests made to the snoop filter.
system.membus.snoop_filter.tot_snoops               0                       # Total number of snoops made to the snoop filter.
system.clk_domain.clock                          1000                       # Clock period in ticks
system.clk_domain.voltage_domain.voltage            1                       # Voltage in Volts
system.cpu.branchPred.lookups                   12791                       # Number of BP lookups
system.cpu.branchPred.condPredicted             11610                       # Number of conditional branches predicted
system.cpu.branchPred.condIncorrect               756                       # Number of conditional branches incorrect
system.cpu.branchPred.BTBLookups                10383                       # Number of BTB lookups
system.cpu.branchPred.BTBHits                    9675                       # Number of BTB hits
system.cpu.branchPred.BTBHitPct             93.181162                       # BTB Hit Percentage
system.cpu.branchPred.RASUsed                     305                       # Number of times the RAS was used to get a target.
system.cpu.branchPred.RASIncorrect                  0                       # Number of incorrect RAS predictions.
system.cpu.branchPred.indirectLookups             281                       # Number of indirect predictor lookups.
system.cpu.branchPred.indirectHits                  8                       # Number of indirect target hits.
system.cpu.branchPred.indirectMisses              273                       # Number of indirect misses.
system.cpu.branchPred.indirectMispredicted           85                       # Number of mispredicted indirect branches.
system.cpu.commit.commitSquashedInsts           14078                       # The number of squashed insts skipped by commit
system.cpu.commit.branchMispredicts               564                       # The number of times a branch was mispredicted
system.cpu.commit.numCommittedDist::samples        44799                       # Number of insts commited each cycle
system.cpu.commit.numCommittedDist::mean     2.045001                       # Number of insts commited each cycle
system.cpu.commit.numCommittedDist::stdev     2.434843                       # Number of insts commited each cycle
system.cpu.commit.numCommittedDist::underflows            0      0.00%      0.00% # Number of insts commited each cycle
system.cpu.commit.numCommittedDist::0           22710     50.69%     50.69% # Number of insts commited each cycle
system.cpu.commit.numCommittedDist::1            1846      4.12%     54.81% # Number of insts commited each cycle
system.cpu.commit.numCommittedDist::2             898      2.00%     56.82% # Number of insts commited each cycle
system.cpu.commit.numCommittedDist::3            9046     20.19%     77.01% # Number of insts commited each cycle
system.cpu.commit.numCommittedDist::4             918      2.05%     79.06% # Number of insts commited each cycle
system.cpu.commit.numCommittedDist::5             544      1.21%     80.27% # Number of insts commited each cycle
system.cpu.commit.numCommittedDist::6            8018     17.90%     98.17% # Number of insts commited each cycle
system.cpu.commit.numCommittedDist::7             218      0.49%     98.66% # Number of insts commited each cycle
system.cpu.commit.numCommittedDist::8             601      1.34%    100.00% # Number of insts commited each cycle
system.cpu.commit.numCommittedDist::overflows            0      0.00%    100.00% # Number of insts commited each cycle
system.cpu.commit.numCommittedDist::min_value            0                       # Number of insts commited each cycle
system.cpu.commit.numCommittedDist::max_value            8                       # Number of insts commited each cycle
system.cpu.commit.numCommittedDist::total        44799                       # Number of insts commited each cycle
system.cpu.commit.instsCommitted                50138                       # Number of instructions committed
system.cpu.commit.opsCommitted                  91614                       # Number of ops (including micro ops) committed
system.cpu.commit.memRefs                        3292                       # Number of memory references committed
system.cpu.commit.loads                          1665                       # Number of loads committed
system.cpu.commit.amos                              0                       # Number of atomic instructions committed
system.cpu.commit.membars                           0                       # Number of memory barriers committed
system.cpu.commit.branches                      10137                       # Number of branches committed
system.cpu.commit.vector                            0                       # Number of committed Vector instructions.
system.cpu.commit.floating                       1267                       # Number of committed floating point instructions.
system.cpu.commit.integer                       90767                       # Number of committed integer instructions.
system.cpu.commit.functionCalls                   147                       # Number of function calls committed.
system.cpu.commit.committedInstType_0::No_OpClass          319      0.35%      0.35% # Class of committed instruction
system.cpu.commit.committedInstType_0::IntAlu        87413     95.41%     95.76% # Class of committed instruction
system.cpu.commit.committedInstType_0::IntMult            5      0.01%     95.77% # Class of committed instruction
system.cpu.commit.committedInstType_0::IntDiv           21      0.02%     95.79% # Class of committed instruction
system.cpu.commit.committedInstType_0::FloatAdd          135      0.15%     95.94% # Class of committed instruction
system.cpu.commit.committedInstType_0::FloatCmp            0      0.00%     95.94% # Class of committed instruction
system.cpu.commit.committedInstType_0::FloatCvt            0      0.00%     95.94% # Class of committed instruction
system.cpu.commit.committedInstType_0::FloatMult            0      0.00%     95.94% # Class of committed instruction
system.cpu.commit.committedInstType_0::FloatMultAcc            0      0.00%     95.94% # Class of committed instruction
system.cpu.commit.committedInstType_0::FloatDiv            0      0.00%     95.94% # Class of committed instruction
system.cpu.commit.committedInstType_0::FloatMisc            0      0.00%     95.94% # Class of committed instruction
system.cpu.commit.committedInstType_0::FloatSqrt            0      0.00%     95.94% # Class of committed instruction
system.cpu.commit.committedInstType_0::SimdAdd            0      0.00%     95.94% # Class of committed instruction
system.cpu.commit.committedInstType_0::SimdAddAcc            0      0.00%     95.94% # Class of committed instruction
system.cpu.commit.committedInstType_0::SimdAlu          100      0.11%     96.05% # Class of committed instruction
system.cpu.commit.committedInstType_0::SimdCmp           12      0.01%     96.06% # Class of committed instruction
system.cpu.commit.committedInstType_0::SimdCvt           74      0.08%     96.14% # Class of committed instruction
system.cpu.commit.committedInstType_0::SimdMisc          243      0.27%     96.41% # Class of committed instruction
system.cpu.commit.committedInstType_0::SimdMult            0      0.00%     96.41% # Class of committed instruction
system.cpu.commit.committedInstType_0::SimdMultAcc            0      0.00%     96.41% # Class of committed instruction
system.cpu.commit.committedInstType_0::SimdShift            0      0.00%     96.41% # Class of committed instruction
system.cpu.commit.committedInstType_0::SimdShiftAcc            0      0.00%     96.41% # Class of committed instruction
system.cpu.commit.committedInstType_0::SimdDiv            0      0.00%     96.41% # Class of committed instruction
system.cpu.commit.committedInstType_0::SimdSqrt            0      0.00%     96.41% # Class of committed instruction
system.cpu.commit.committedInstType_0::SimdFloatAdd            0      0.00%     96.41% # Class of committed instruction
system.cpu.commit.committedInstType_0::SimdFloatAlu            0      0.00%     96.41% # Class of committed instruction
system.cpu.commit.committedInstType_0::SimdFloatCmp            0      0.00%     96.41% # Class of committed instruction
system.cpu.commit.committedInstType_0::SimdFloatCvt            0      0.00%     96.41% # Class of committed instruction
system.cpu.commit.committedInstType_0::SimdFloatDiv            0      0.00%     96.41% # Class of committed instruction
system.cpu.commit.committedInstType_0::SimdFloatMisc            0      0.00%     96.41% # Class of committed instruction
system.cpu.commit.committedInstType_0::SimdFloatMult            0      0.00%     96.41% # Class of committed instruction
system.cpu.commit.committedInstType_0::SimdFloatMultAcc            0      0.00%     96.41% # Class of committed instruction
system.cpu.commit.committedInstType_0::SimdFloatSqrt            0      0.00%     96.41% # Class of committed instruction
system.cpu.commit.committedInstType_0::SimdReduceAdd            0      0.00%     96.41% # Class of committed instruction
system.cpu.commit.committedInstType_0::SimdReduceAlu            0      0.00%     96.41% # Class of committed instruction
system.cpu.commit.committedInstType_0::SimdReduceCmp            0      0.00%     96.41% # Class of committed instruction
system.cpu.commit.committedInstType_0::SimdFloatReduceAdd            0      0.00%     96.41% # Class of committed instruction
system.cpu.commit.committedInstType_0::SimdFloatReduceCmp            0      0.00%     96.41% # Class of committed instruction
system.cpu.commit.committedInstType_0::SimdAes            0      0.00%     96.41% # Class of committed instruction
system.cpu.commit.committedInstType_0::SimdAesMix            0      0.00%     96.41% # Class of committed instruction
system.cpu.commit.committedInstType_0::SimdSha1Hash            0      0.00%     96.41% # Class of committed instruction
system.cpu.commit.committedInstType_0::SimdSha1Hash2            0      0.00%     96.41% # Class of committed instruction
system.cpu.commit.committedInstType_0::SimdSha256Hash            0      0.00%     96.41% # Class of committed instruction
system.cpu.commit.committedInstType_0::SimdSha256Hash2            0      0.00%     96.41% # Class of committed instruction
system.cpu.commit.committedInstType_0::SimdShaSigma2            0      0.00%     96.41% # Class of committed instruction
system.cpu.commit.committedInstType_0::SimdShaSigma3            0      0.00%     96.41% # Class of committed instruction
system.cpu.commit.committedInstType_0::SimdPredAlu            0      0.00%     96.41% # Class of committed instruction
system.cpu.commit.committedInstType_0::MemRead         1587      1.73%     98.14% # Class of committed instruction
system.cpu.commit.committedInstType_0::MemWrite         1161      1.27%     99.41% # Class of committed instruction
system.cpu.commit.committedInstType_0::FloatMemRead           78      0.09%     99.49% # Class of committed instruction
system.cpu.commit.committedInstType_0::FloatMemWrite          466      0.51%    100.00% # Class of committed instruction
system.cpu.commit.committedInstType_0::IprAccess            0      0.00%    100.00% # Class of committed instruction
system.cpu.commit.committedInstType_0::InstPrefetch            0      0.00%    100.00% # Class of committed instruction
system.cpu.commit.committedInstType_0::total        91614                       # Class of committed instruction
system.cpu.commit.commitEligibleSamples           601                       # number cycles where commit BW limit reached
system.cpu.dcache.demand_hits::.cpu.data         3835                       # number of demand (read+write) hits
system.cpu.dcache.demand_hits::total             3835                       # number of demand (read+write) hits
system.cpu.dcache.overall_hits::.cpu.data         3835                       # number of overall hits
system.cpu.dcache.overall_hits::total            3835                       # number of overall hits
system.cpu.dcache.demand_misses::.cpu.data          457                       # number of demand (read+write) misses
system.cpu.dcache.demand_misses::total            457                       # number of demand (read+write) misses
system.cpu.dcache.overall_misses::.cpu.data          457                       # number of overall misses
system.cpu.dcache.overall_misses::total           457                       # number of overall misses
system.cpu.dcache.demand_miss_latency::.cpu.data     43107999                       # number of demand (read+write) miss cycles
system.cpu.dcache.demand_miss_latency::total     43107999                       # number of demand (read+write) miss cycles
system.cpu.dcache.overall_miss_latency::.cpu.data     43107999                       # number of overall miss cycles
system.cpu.dcache.overall_miss_latency::total     43107999                       # number of overall miss cycles
system.cpu.dcache.demand_accesses::.cpu.data         4292                       # number of demand (read+write) accesses
system.cpu.dcache.demand_accesses::total         4292                       # number of demand (read+write) accesses
system.cpu.dcache.overall_accesses::.cpu.data         4292                       # number of overall (read+write) accesses
system.cpu.dcache.overall_accesses::total         4292                       # number of overall (read+write) accesses
system.cpu.dcache.demand_miss_rate::.cpu.data     0.106477                       # miss rate for demand accesses
system.cpu.dcache.demand_miss_rate::total     0.106477                       # miss rate for demand accesses
system.cpu.dcache.overall_miss_rate::.cpu.data     0.106477                       # miss rate for overall accesses
system.cpu.dcache.overall_miss_rate::total     0.106477                       # miss rate for overall accesses
system.cpu.dcache.demand_avg_miss_latency::.cpu.data 94328.225383                       # average overall miss latency
system.cpu.dcache.demand_avg_miss_latency::total 94328.225383                       # average overall miss latency
system.cpu.dcache.overall_avg_miss_latency::.cpu.data 94328.225383                       # average overall miss latency
system.cpu.dcache.overall_avg_miss_latency::total 94328.225383                       # average overall miss latency
system.cpu.dcache.blocked_cycles::no_mshrs          877                       # number of cycles access was blocked
system.cpu.dcache.blocked_cycles::no_targets            0                       # number of cycles access was blocked
system.cpu.dcache.blocked::no_mshrs                27                       # number of cycles access was blocked
system.cpu.dcache.blocked::no_targets               0                       # number of cycles access was blocked
system.cpu.dcache.avg_blocked_cycles::no_mshrs    32.481481                       # average number of cycles each access was blocked
system.cpu.dcache.avg_blocked_cycles::no_targets          nan                       # average number of cycles each access was blocked
system.cpu.dcache.demand_mshr_hits::.cpu.data          206                       # number of demand (read+write) MSHR hits
system.cpu.dcache.demand_mshr_hits::total          206                       # number of demand (read+write) MSHR hits
system.cpu.dcache.overall_mshr_hits::.cpu.data          206                       # number of overall MSHR hits
system.cpu.dcache.overall_mshr_hits::total          206                       # number of overall MSHR hits
system.cpu.dcache.demand_mshr_misses::.cpu.data          251                       # number of demand (read+write) MSHR misses
system.cpu.dcache.demand_mshr_misses::total          251                       # number of demand (read+write) MSHR misses
system.cpu.dcache.overall_mshr_misses::.cpu.data          251                       # number of overall MSHR misses
system.cpu.dcache.overall_mshr_misses::total          251                       # number of overall MSHR misses
system.cpu.dcache.demand_mshr_miss_latency::.cpu.data     26536999                       # number of demand (read+write) MSHR miss cycles
system.cpu.dcache.demand_mshr_miss_latency::total     26536999                       # number of demand (read+write) MSHR miss cycles
system.cpu.dcache.overall_mshr_miss_latency::.cpu.data     26536999                       # number of overall MSHR miss cycles
system.cpu.dcache.overall_mshr_miss_latency::total     26536999                       # number of overall MSHR miss cycles
system.cpu.dcache.demand_mshr_miss_rate::.cpu.data     0.058481                       # mshr miss rate for demand accesses
system.cpu.dcache.demand_mshr_miss_rate::total     0.058481                       # mshr miss rate for demand accesses
system.cpu.dcache.overall_mshr_miss_rate::.cpu.data     0.058481                       # mshr miss rate for overall accesses
system.cpu.dcache.overall_mshr_miss_rate::total     0.058481                       # mshr miss rate for overall accesses
system.cpu.dcache.demand_avg_mshr_miss_latency::.cpu.data 105725.095618                       # average overall mshr miss latency
system.cpu.dcache.demand_avg_mshr_miss_latency::total 105725.095618                       # average overall mshr miss latency
system.cpu.dcache.overall_avg_mshr_miss_latency::.cpu.data 105725.095618                       # average overall mshr miss latency
system.cpu.dcache.overall_avg_mshr_miss_latency::total 105725.095618                       # average overall mshr miss latency
system.cpu.dcache.replacements                      0                       # number of replacements
system.cpu.dcache.ReadReq_hits::.cpu.data         2327                       # number of ReadReq hits
system.cpu.dcache.ReadReq_hits::total            2327                       # number of ReadReq hits
system.cpu.dcache.ReadReq_misses::.cpu.data          337                       # number of ReadReq misses
system.cpu.dcache.ReadReq_misses::total           337                       # number of ReadReq misses
system.cpu.dcache.ReadReq_miss_latency::.cpu.data     30478000                       # number of ReadReq miss cycles
system.cpu.dcache.ReadReq_miss_latency::total     30478000                       # number of ReadReq miss cycles
system.cpu.dcache.ReadReq_accesses::.cpu.data         2664                       # number of ReadReq accesses(hits+misses)
system.cpu.dcache.ReadReq_accesses::total         2664                       # number of ReadReq accesses(hits+misses)
system.cpu.dcache.ReadReq_miss_rate::.cpu.data     0.126502                       # miss rate for ReadReq accesses
system.cpu.dcache.ReadReq_miss_rate::total     0.126502                       # miss rate for ReadReq accesses
system.cpu.dcache.ReadReq_avg_miss_latency::.cpu.data 90439.169139                       # average ReadReq miss latency
system.cpu.dcache.ReadReq_avg_miss_latency::total 90439.169139                       # average ReadReq miss latency
system.cpu.dcache.ReadReq_mshr_hits::.cpu.data          204                       # number of ReadReq MSHR hits
system.cpu.dcache.ReadReq_mshr_hits::total          204                       # number of ReadReq MSHR hits
system.cpu.dcache.ReadReq_mshr_misses::.cpu.data          133                       # number of ReadReq MSHR misses
system.cpu.dcache.ReadReq_mshr_misses::total          133                       # number of ReadReq MSHR misses
system.cpu.dcache.ReadReq_mshr_miss_latency::.cpu.data     14162000                       # number of ReadReq MSHR miss cycles
system.cpu.dcache.ReadReq_mshr_miss_latency::total     14162000                       # number of ReadReq MSHR miss cycles
system.cpu.dcache.ReadReq_mshr_miss_rate::.cpu.data     0.049925                       # mshr miss rate for ReadReq accesses
system.cpu.dcache.ReadReq_mshr_miss_rate::total     0.049925                       # mshr miss rate for ReadReq accesses
system.cpu.dcache.ReadReq_avg_mshr_miss_latency::.cpu.data 106481.203008                       # average ReadReq mshr miss latency
system.cpu.dcache.ReadReq_avg_mshr_miss_latency::total 106481.203008                       # average ReadReq mshr miss latency
system.cpu.dcache.WriteReq_hits::.cpu.data         1508                       # number of WriteReq hits
system.cpu.dcache.WriteReq_hits::total           1508                       # number of WriteReq hits
system.cpu.dcache.WriteReq_misses::.cpu.data          120                       # number of WriteReq misses
system.cpu.dcache.WriteReq_misses::total          120                       # number of WriteReq misses
system.cpu.dcache.WriteReq_miss_latency::.cpu.data     12629999                       # number of WriteReq miss cycles
system.cpu.dcache.WriteReq_miss_latency::total     12629999                       # number of WriteReq miss cycles
system.cpu.dcache.WriteReq_accesses::.cpu.data         1628                       # number of WriteReq accesses(hits+misses)
system.cpu.dcache.WriteReq_accesses::total         1628                       # number of WriteReq accesses(hits+misses)
system.cpu.dcache.WriteReq_miss_rate::.cpu.data     0.073710                       # miss rate for WriteReq accesses
system.cpu.dcache.WriteReq_miss_rate::total     0.073710                       # miss rate for WriteReq accesses
system.cpu.dcache.WriteReq_avg_miss_latency::.cpu.data 105249.991667                       # average WriteReq miss latency
system.cpu.dcache.WriteReq_avg_miss_latency::total 105249.991667                       # average WriteReq miss latency
system.cpu.dcache.WriteReq_mshr_hits::.cpu.data            2                       # number of WriteReq MSHR hits
system.cpu.dcache.WriteReq_mshr_hits::total            2                       # number of WriteReq MSHR hits
system.cpu.dcache.WriteReq_mshr_misses::.cpu.data          118                       # number of WriteReq MSHR misses
system.cpu.dcache.WriteReq_mshr_misses::total          118                       # number of WriteReq MSHR misses
system.cpu.dcache.WriteReq_mshr_miss_latency::.cpu.data     12374999                       # number of WriteReq MSHR miss cycles
system.cpu.dcache.WriteReq_mshr_miss_latency::total     12374999                       # number of WriteReq MSHR miss cycles
system.cpu.dcache.WriteReq_mshr_miss_rate::.cpu.data     0.072482                       # mshr miss rate for WriteReq accesses
system.cpu.dcache.WriteReq_mshr_miss_rate::total     0.072482                       # mshr miss rate for WriteReq accesses
system.cpu.dcache.WriteReq_avg_mshr_miss_latency::.cpu.data 104872.872881                       # average WriteReq mshr miss latency
system.cpu.dcache.WriteReq_avg_mshr_miss_latency::total 104872.872881                       # average WriteReq mshr miss latency
system.cpu.dcache.power_state.pwrStateResidencyTicks::UNDEFINED     69207000                       # Cumulative time (in ticks) in various power states
system.cpu.dcache.tags.tagsinuse           168.329953                       # Cycle average of tags in use
system.cpu.dcache.tags.total_refs                4086                       # Total number of references to valid blocks.
system.cpu.dcache.tags.sampled_refs               251                       # Sample count of references to valid blocks.
system.cpu.dcache.tags.avg_refs             16.278884                       # Average number of references to valid blocks.
system.cpu.dcache.tags.warmup_cycle            222000                       # Cycle when the warmup percentage was hit.
system.cpu.dcache.tags.occ_blocks::.cpu.data   168.329953                       # Average occupied blocks per requestor
system.cpu.dcache.tags.occ_percent::.cpu.data     0.164385                       # Average percentage of cache occupancy
system.cpu.dcache.tags.occ_percent::total     0.164385                       # Average percentage of cache occupancy
system.cpu.dcache.tags.occ_task_id_blocks::1024          251                       # Occupied blocks per task id
system.cpu.dcache.tags.age_task_id_blocks_1024::0           17                       # Occupied blocks per task id
system.cpu.dcache.tags.age_task_id_blocks_1024::1          234                       # Occupied blocks per task id
system.cpu.dcache.tags.occ_task_id_percent::1024     0.245117                       # Percentage of cache occupancy per task id
system.cpu.dcache.tags.tag_accesses              8835                       # Number of tag accesses
system.cpu.dcache.tags.data_accesses             8835                       # Number of data accesses
system.cpu.dcache.tags.power_state.pwrStateResidencyTicks::UNDEFINED     69207000                       # Cumulative time (in ticks) in various power states
system.cpu.decode.idleCycles                    16153                       # Number of cycles decode is idle
system.cpu.decode.blockedCycles                  8177                       # Number of cycles decode is blocked
system.cpu.decode.runCycles                     21517                       # Number of cycles decode is running
system.cpu.decode.unblockCycles                   557                       # Number of cycles decode is unblocking
system.cpu.decode.squashCycles                    589                       # Number of cycles decode is squashing
system.cpu.decode.branchResolved                 9775                       # Number of times decode resolved a  branch
system.cpu.decode.branchMispred                   232                       # Number of times decode detected a branch misprediction
system.cpu.decode.decodedInsts                 110426                       # Number of instructions handled by decode
system.cpu.decode.squashedInsts                  1113                       # Number of squashed instructions handled by decode
system.cpu.dtb.rdAccesses                        2933                       # TLB accesses on read requests
system.cpu.dtb.wrAccesses                        2124                       # TLB accesses on write requests
system.cpu.dtb.rdMisses                            95                       # TLB misses on read requests
system.cpu.dtb.wrMisses                            24                       # TLB misses on write requests
system.cpu.dtb.walker.power_state.pwrStateResidencyTicks::UNDEFINED     69207000                       # Cumulative time (in ticks) in various power states
system.cpu.fetch.icacheStallCycles              16628                       # Number of cycles fetch is stalled on an Icache miss
system.cpu.fetch.insts                          62157                       # Number of instructions fetch has processed
system.cpu.fetch.branches                       12791                       # Number of branches that fetch encountered
system.cpu.fetch.predictedBranches               9988                       # Number of branches that fetch has predicted taken
system.cpu.fetch.cycles                         29278                       # Number of cycles fetch has run and was not squashing or blocked
system.cpu.fetch.squashCycles                    1624                       # Number of cycles fetch has spent squashing
system.cpu.fetch.miscStallCycles                   42                       # Number of cycles fetch has spent waiting on interrupts,or bad addresses, or out of MSHRs
system.cpu.fetch.pendingTrapStallCycles           218                       # Number of stall cycles due to pending traps
system.cpu.fetch.pendingQuiesceStallCycles            4                       # Number of stall cycles due to pending quiesce instructions
system.cpu.fetch.icacheWaitRetryStallCycles           11                       # Number of stall cycles due to full MSHR
system.cpu.fetch.cacheLines                      3193                       # Number of cache lines fetched
system.cpu.fetch.icacheSquashes                   379                       # Number of outstanding Icache misses that were squashed
system.cpu.fetch.nisnDist::samples              46993                       # Number of instructions fetched each cycle (Total)
system.cpu.fetch.nisnDist::mean              2.439789                       # Number of instructions fetched each cycle (Total)
system.cpu.fetch.nisnDist::stdev             3.405105                       # Number of instructions fetched each cycle (Total)
system.cpu.fetch.nisnDist::underflows               0      0.00%      0.00% # Number of instructions fetched each cycle (Total)
system.cpu.fetch.nisnDist::0                    24052     51.18%     51.18% # Number of instructions fetched each cycle (Total)
system.cpu.fetch.nisnDist::1                     8590     18.28%     69.46% # Number of instructions fetched each cycle (Total)
system.cpu.fetch.nisnDist::2                      280      0.60%     70.06% # Number of instructions fetched each cycle (Total)
system.cpu.fetch.nisnDist::3                      525      1.12%     71.17% # Number of instructions fetched each cycle (Total)
system.cpu.fetch.nisnDist::4                      578      1.23%     72.40% # Number of instructions fetched each cycle (Total)
system.cpu.fetch.nisnDist::5                      340      0.72%     73.13% # Number of instructions fetched each cycle (Total)
system.cpu.fetch.nisnDist::6                      417      0.89%     74.02% # Number of instructions fetched each cycle (Total)
system.cpu.fetch.nisnDist::7                      274      0.58%     74.60% # Number of instructions fetched each cycle (Total)
system.cpu.fetch.nisnDist::8                    11937     25.40%    100.00% # Number of instructions fetched each cycle (Total)
system.cpu.fetch.nisnDist::overflows                0      0.00%    100.00% # Number of instructions fetched each cycle (Total)
system.cpu.fetch.nisnDist::min_value                0                       # Number of instructions fetched each cycle (Total)
system.cpu.fetch.nisnDist::max_value                8                       # Number of instructions fetched each cycle (Total)
system.cpu.fetch.nisnDist::total                46993                       # Number of instructions fetched each cycle (Total)
system.cpu.fetch.branchRate                  0.184820                       # Number of branch fetches per cycle
system.cpu.fetch.rate                        0.898119                       # Number of inst fetches per cycle
system.cpu.icache.demand_hits::.cpu.inst         2562                       # number of demand (read+write) hits
system.cpu.icache.demand_hits::total             2562                       # number of demand (read+write) hits
system.cpu.icache.overall_hits::.cpu.inst         2562                       # number of overall hits
system.cpu.icache.overall_hits::total            2562                       # number of overall hits
system.cpu.icache.demand_misses::.cpu.inst          631                       # number of demand (read+write) misses
system.cpu.icache.demand_misses::total            631                       # number of demand (read+write) misses
system.cpu.icache.overall_misses::.cpu.inst          631                       # number of overall misses
system.cpu.icache.overall_misses::total           631                       # number of overall misses
system.cpu.icache.demand_miss_latency::.cpu.inst     61291000                       # number of demand (read+write) miss cycles
system.cpu.icache.demand_miss_latency::total     61291000                       # number of demand (read+write) miss cycles
system.cpu.icache.overall_miss_latency::.cpu.inst     61291000                       # number of overall miss cycles
system.cpu.icache.overall_miss_latency::total     61291000                       # number of overall miss cycles
system.cpu.icache.demand_accesses::.cpu.inst         3193                       # number of demand (read+write) accesses
system.cpu.icache.demand_accesses::total         3193                       # number of demand (read+write) accesses
system.cpu.icache.overall_accesses::.cpu.inst         3193                       # number of overall (read+write) accesses
system.cpu.icache.overall_accesses::total         3193                       # number of overall (read+write) accesses
system.cpu.icache.demand_miss_rate::.cpu.inst     0.197620                       # miss rate for demand accesses
system.cpu.icache.demand_miss_rate::total     0.197620                       # miss rate for demand accesses
system.cpu.icache.overall_miss_rate::.cpu.inst     0.197620                       # miss rate for overall accesses
system.cpu.icache.overall_miss_rate::total     0.197620                       # miss rate for overall accesses
system.cpu.icache.demand_avg_miss_latency::.cpu.inst 97133.122029                       # average overall miss latency
system.cpu.icache.demand_avg_miss_latency::total 97133.122029                       # average overall miss latency
system.cpu.icache.overall_avg_miss_latency::.cpu.inst 97133.122029                       # average overall miss latency
system.cpu.icache.overall_avg_miss_latency::total 97133.122029                       # average overall miss latency
system.cpu.icache.blocked_cycles::no_mshrs          190                       # number of cycles access was blocked
system.cpu.icache.blocked_cycles::no_targets            0                       # number of cycles access was blocked
system.cpu.icache.blocked::no_mshrs                 3                       # number of cycles access was blocked
system.cpu.icache.blocked::no_targets               0                       # number of cycles access was blocked
system.cpu.icache.avg_blocked_cycles::no_mshrs    63.333333                       # average number of cycles each access was blocked
system.cpu.icache.avg_blocked_cycles::no_targets          nan                       # average number of cycles each access was blocked
system.cpu.icache.demand_mshr_hits::.cpu.inst          144                       # number of demand (read+write) MSHR hits
system.cpu.icache.demand_mshr_hits::total          144                       # number of demand (read+write) MSHR hits
system.cpu.icache.overall_mshr_hits::.cpu.inst          144                       # number of overall MSHR hits
system.cpu.icache.overall_mshr_hits::total          144                       # number of overall MSHR hits
system.cpu.icache.demand_mshr_misses::.cpu.inst          487                       # number of demand (read+write) MSHR misses
system.cpu.icache.demand_mshr_misses::total          487                       # number of demand (read+write) MSHR misses
system.cpu.icache.overall_mshr_misses::.cpu.inst          487                       # number of overall MSHR misses
system.cpu.icache.overall_mshr_misses::total          487                       # number of overall MSHR misses
system.cpu.icache.demand_mshr_miss_latency::.cpu.inst     50129000                       # number of demand (read+write) MSHR miss cycles
system.cpu.icache.demand_mshr_miss_latency::total     50129000                       # number of demand (read+write) MSHR miss cycles
system.cpu.icache.overall_mshr_miss_latency::.cpu.inst     50129000                       # number of overall MSHR miss cycles
system.cpu.icache.overall_mshr_miss_latency::total     50129000                       # number of overall MSHR miss cycles
system.cpu.icache.demand_mshr_miss_rate::.cpu.inst     0.152521                       # mshr miss rate for demand accesses
system.cpu.icache.demand_mshr_miss_rate::total     0.152521                       # mshr miss rate for demand accesses
system.cpu.icache.overall_mshr_miss_rate::.cpu.inst     0.152521                       # mshr miss rate for overall accesses
system.cpu.icache.overall_mshr_miss_rate::total     0.152521                       # mshr miss rate for overall accesses
system.cpu.icache.demand_avg_mshr_miss_latency::.cpu.inst 102934.291581                       # average overall mshr miss latency
system.cpu.icache.demand_avg_mshr_miss_latency::total 102934.291581                       # average overall mshr miss latency
system.cpu.icache.overall_avg_mshr_miss_latency::.cpu.inst 102934.291581                       # average overall mshr miss latency
system.cpu.icache.overall_avg_mshr_miss_latency::total 102934.291581                       # average overall mshr miss latency
system.cpu.icache.replacements                    249                       # number of replacements
system.cpu.icache.ReadReq_hits::.cpu.inst         2562                       # number of ReadReq hits
system.cpu.icache.ReadReq_hits::total            2562                       # number of ReadReq hits
system.cpu.icache.ReadReq_misses::.cpu.inst          631                       # number of ReadReq misses
system.cpu.icache.ReadReq_misses::total           631                       # number of ReadReq misses
system.cpu.icache.ReadReq_miss_latency::.cpu.inst     61291000                       # number of ReadReq miss cycles
system.cpu.icache.ReadReq_miss_latency::total     61291000                       # number of ReadReq miss cycles
system.cpu.icache.ReadReq_accesses::.cpu.inst         3193                       # number of ReadReq accesses(hits+misses)
system.cpu.icache.ReadReq_accesses::total         3193                       # number of ReadReq accesses(hits+misses)
system.cpu.icache.ReadReq_miss_rate::.cpu.inst     0.197620                       # miss rate for ReadReq accesses
system.cpu.icache.ReadReq_miss_rate::total     0.197620                       # miss rate for ReadReq accesses
system.cpu.icache.ReadReq_avg_miss_latency::.cpu.inst 97133.122029                       # average ReadReq miss latency
system.cpu.icache.ReadReq_avg_miss_latency::total 97133.122029                       # average ReadReq miss latency
system.cpu.icache.ReadReq_mshr_hits::.cpu.inst          144                       # number of ReadReq MSHR hits
system.cpu.icache.ReadReq_mshr_hits::total          144                       # number of ReadReq MSHR hits
system.cpu.icache.ReadReq_mshr_misses::.cpu.inst          487                       # number of ReadReq MSHR misses
system.cpu.icache.ReadReq_mshr_misses::total          487                       # number of ReadReq MSHR misses
system.cpu.icache.ReadReq_mshr_miss_latency::.cpu.inst     50129000                       # number of ReadReq MSHR miss cycles
system.cpu.icache.ReadReq_mshr_miss_latency::total     50129000                       # number of ReadReq MSHR miss cycles
system.cpu.icache.ReadReq_mshr_miss_rate::.cpu.inst     0.152521                       # mshr miss rate for ReadReq accesses
system.cpu.icache.ReadReq_mshr_miss_rate::total     0.152521                       # mshr miss rate for ReadReq accesses
system.cpu.icache.ReadReq_avg_mshr_miss_latency::.cpu.inst 102934.291581                       # average ReadReq mshr miss latency
system.cpu.icache.ReadReq_avg_mshr_miss_latency::total 102934.291581                       # average ReadReq mshr miss latency
system.cpu.icache.power_state.pwrStateResidencyTicks::UNDEFINED     69207000                       # Cumulative time (in ticks) in various power states
system.cpu.icache.tags.tagsinuse           173.224328                       # Cycle average of tags in use
system.cpu.icache.tags.total_refs                3049                       # Total number of references to valid blocks.
system.cpu.icache.tags.sampled_refs               487                       # Sample count of references to valid blocks.
system.cpu.icache.tags.avg_refs              6.260780                       # Average number of references to valid blocks.
system.cpu.icache.tags.warmup_cycle            107000                       # Cycle when the warmup percentage was hit.
system.cpu.icache.tags.occ_blocks::.cpu.inst   173.224328                       # Average occupied blocks per requestor
system.cpu.icache.tags.occ_percent::.cpu.inst     0.676658                       # Average percentage of cache occupancy
system.cpu.icache.tags.occ_percent::total     0.676658                       # Average percentage of cache occupancy
system.cpu.icache.tags.occ_task_id_blocks::1024          238                       # Occupied blocks per task id
system.cpu.icache.tags.age_task_id_blocks_1024::0           39                       # Occupied blocks per task id
system.cpu.icache.tags.age_task_id_blocks_1024::1          199                       # Occupied blocks per task id
system.cpu.icache.tags.occ_task_id_percent::1024     0.929688                       # Percentage of cache occupancy per task id
system.cpu.icache.tags.tag_accesses              6873                       # Number of tag accesses
system.cpu.icache.tags.data_accesses             6873                       # Number of data accesses
system.cpu.icache.tags.power_state.pwrStateResidencyTicks::UNDEFINED     69207000                       # Cumulative time (in ticks) in various power states
system.cpu.interrupts.clk_domain.clock          16000                       # Clock period in ticks
system.cpu.itb.rdAccesses                           0                       # TLB accesses on read requests
system.cpu.itb.wrAccesses                        3235                       # TLB accesses on write requests
system.cpu.itb.rdMisses                             0                       # TLB misses on read requests
system.cpu.itb.wrMisses                            84                       # TLB misses on write requests
system.cpu.itb.walker.power_state.pwrStateResidencyTicks::UNDEFINED     69207000                       # Cumulative time (in ticks) in various power states
system.cpu.lsq0.forwLoads                         174                       # Number of loads that had data forwarded from stores
system.cpu.lsq0.squashedLoads                    1737                       # Number of loads squashed
system.cpu.lsq0.ignoredResponses                    2                       # Number of memory responses ignored because the instruction is squashed
system.cpu.lsq0.memOrderViolation                  13                       # Number of memory ordering violations
system.cpu.lsq0.squashedStores                    946                       # Number of stores squashed
system.cpu.lsq0.rescheduledLoads                    0                       # Number of loads that were rescheduled
system.cpu.lsq0.blockedByCache                     24                       # Number of times an access to memory failed due to the cache being blocked
system.cpu.power_state.pwrStateResidencyTicks::ON     69207000                       # Cumulative time (in ticks) in various power states
system.cpu.rename.squashCycles                    589                       # Number of cycles rename is squashing
system.cpu.rename.idleCycles                    16640                       # Number of cycles rename is idle
system.cpu.rename.blockCycles                    3075                       # Number of cycles rename is blocking
system.cpu.rename.serializeStallCycles            459                       # count of cycles rename stalledfor serializing inst
system.cpu.rename.runCycles                     21523                       # Number of cycles rename is running
system.cpu.rename.unblockCycles                  4707                       # Number of cycles rename is unblocking
system.cpu.rename.renamedInsts                 108772                       # Number of instructions processed by rename
system.cpu.rename.ROBFullEvents                    43                       # Number of times rename has blocked due to ROB full
system.cpu.rename.IQFullEvents                    132                       # Number of times rename has blocked due to IQ full
system.cpu.rename.SQFullEvents                   4436                       # Number of times rename has blocked due to SQ full
system.cpu.rename.renamedOperands              137102                       # Number of destination operands rename has renamed
system.cpu.rename.lookups                      240933                       # Number of register rename lookups that rename has made
system.cpu.rename.intLookups                   147997                       # Number of integer rename lookups
system.cpu.rename.fpLookups                      1851                       # Number of floating rename lookups
system.cpu.rename.committedMaps                118348                       # Number of HB maps that are committed
system.cpu.rename.undoneMaps                    18740                       # Number of HB maps that are undone due to squashing
system.cpu.rename.serializing                      13                       # count of serializing insts renamed
system.cpu.rename.tempSerializing                  15                       # count of temporary serializing insts renamed
system.cpu.rename.skidInsts                      1981                       # count of insts added to the skid buffer
system.cpu.rob.reads                           149734                       # The number of ROB reads
system.cpu.rob.writes                          213608                       # The number of ROB writes
system.cpu.thread_0.numInsts                    50138                       # Number of Instructions committed
system.cpu.thread_0.numOps                      91614                       # Number of Ops committed
system.cpu.thread_0.numMemRefs                      0                       # Number of Memory References
system.l2bus.trans_dist::ReadResp                 620                       # Transaction distribution
system.l2bus.trans_dist::CleanEvict               978                       # Transaction distribution
system.l2bus.trans_dist::ReadExReq                118                       # Transaction distribution
system.l2bus.trans_dist::ReadExResp               118                       # Transaction distribution
system.l2bus.trans_dist::ReadSharedReq            620                       # Transaction distribution
system.l2bus.pkt_count_system.cpu.icache.mem_side_port::system.l2cache.cpu_side_port         1223                       # Packet count per connected requestor and responder (bytes)
system.l2bus.pkt_count_system.cpu.dcache.mem_side_port::system.l2cache.cpu_side_port          502                       # Packet count per connected requestor and responder (bytes)
system.l2bus.pkt_count::total                    1725                       # Packet count per connected requestor and responder (bytes)
system.l2bus.pkt_size_system.cpu.icache.mem_side_port::system.l2cache.cpu_side_port        31168                       # Cumulative packet size per connected requestor and responder (bytes)
system.l2bus.pkt_size_system.cpu.dcache.mem_side_port::system.l2cache.cpu_side_port        16064                       # Cumulative packet size per connected requestor and responder (bytes)
system.l2bus.pkt_size::total                    47232                       # Cumulative packet size per connected requestor and responder (bytes)
system.l2bus.snoops                               729                       # Total snoops (count)
system.l2bus.snoopTraffic                           0                       # Total snoop traffic (bytes)
system.l2bus.snoop_fanout::samples               1467                       # Request fanout histogram
system.l2bus.snoop_fanout::mean              0.496933                       # Request fanout histogram
system.l2bus.snoop_fanout::stdev             0.500161                       # Request fanout histogram
system.l2bus.snoop_fanout::underflows               0      0.00%      0.00% # Request fanout histogram
system.l2bus.snoop_fanout::0                      738     50.31%     50.31% # Request fanout histogram
system.l2bus.snoop_fanout::1                      729     49.69%    100.00% # Request fanout histogram
system.l2bus.snoop_fanout::2                        0      0.00%    100.00% # Request fanout histogram
system.l2bus.snoop_fanout::overflows                0      0.00%    100.00% # Request fanout histogram
system.l2bus.snoop_fanout::min_value                0                       # Request fanout histogram
system.l2bus.snoop_fanout::max_value                1                       # Request fanout histogram
system.l2bus.snoop_fanout::total                 1467                       # Request fanout histogram
system.l2bus.power_state.pwrStateResidencyTicks::UNDEFINED     69207000                       # Cumulative time (in ticks) in various power states
system.l2bus.reqLayer0.occupancy               987000                       # Layer occupancy (ticks)
system.l2bus.reqLayer0.utilization                1.4                       # Layer utilization (%)
system.l2bus.respLayer0.occupancy             1461000                       # Layer occupancy (ticks)
system.l2bus.respLayer0.utilization               2.1                       # Layer utilization (%)
system.l2bus.respLayer1.occupancy              753000                       # Layer occupancy (ticks)
system.l2bus.respLayer1.utilization               1.1                       # Layer utilization (%)
system.l2cache.demand_misses::.cpu.inst           487                       # number of demand (read+write) misses
system.l2cache.demand_misses::.cpu.data           251                       # number of demand (read+write) misses
system.l2cache.demand_misses::total               738                       # number of demand (read+write) misses
system.l2cache.overall_misses::.cpu.inst          487                       # number of overall misses
system.l2cache.overall_misses::.cpu.data          251                       # number of overall misses
system.l2cache.overall_misses::total              738                       # number of overall misses
system.l2cache.demand_miss_latency::.cpu.inst     48666000                       # number of demand (read+write) miss cycles
system.l2cache.demand_miss_latency::.cpu.data     25773000                       # number of demand (read+write) miss cycles
system.l2cache.demand_miss_latency::total     74439000                       # number of demand (read+write) miss cycles
system.l2cache.overall_miss_latency::.cpu.inst     48666000                       # number of overall miss cycles
system.l2cache.overall_miss_latency::.cpu.data     25773000                       # number of overall miss cycles
system.l2cache.overall_miss_latency::total     74439000                       # number of overall miss cycles
system.l2cache.demand_accesses::.cpu.inst          487                       # number of demand (read+write) accesses
system.l2cache.demand_accesses::.cpu.data          251                       # number of demand (read+write) accesses
system.l2cache.demand_accesses::total             738                       # number of demand (read+write) accesses
system.l2cache.overall_accesses::.cpu.inst          487                       # number of overall (read+write) accesses
system.l2cache.overall_accesses::.cpu.data          251                       # number of overall (read+write) accesses
system.l2cache.overall_accesses::total            738                       # number of overall (read+write) accesses
system.l2cache.demand_miss_rate::.cpu.inst            1                       # miss rate for demand accesses
system.l2cache.demand_miss_rate::.cpu.data            1                       # miss rate for demand accesses
system.l2cache.demand_miss_rate::total              1                       # miss rate for demand accesses
system.l2cache.overall_miss_rate::.cpu.inst            1                       # miss rate for overall accesses
system.l2cache.overall_miss_rate::.cpu.data            1                       # miss rate for overall accesses
system.l2cache.overall_miss_rate::total             1                       # miss rate for overall accesses
system.l2cache.demand_avg_miss_latency::.cpu.inst 99930.184805                       # average overall miss latency
system.l2cache.demand_avg_miss_latency::.cpu.data 102681.274900                       # average overall miss latency
system.l2cache.demand_avg_miss_latency::total 100865.853659                       # average overall miss latency
system.l2cache.overall_avg_miss_latency::.cpu.inst 99930.184805                       # average overall miss latency
system.l2cache.overall_avg_miss_latency::.cpu.data 102681.274900                       # average overall miss latency
system.l2cache.overall_avg_miss_latency::total 100865.853659                       # average overall miss latency
system.l2cache.blocked_cycles::no_mshrs             0                       # number of cycles access was blocked
system.l2cache.blocked_cycles::no_targets            0                       # number of cycles access was blocked
system.l2cache.blocked::no_mshrs                    0                       # number of cycles access was blocked
system.l2cache.blocked::no_targets                  0                       # number of cycles access was blocked
system.l2cache.avg_blocked_cycles::no_mshrs          nan                       # average number of cycles each access was blocked
system.l2cache.avg_blocked_cycles::no_targets          nan                       # average number of cycles each access was blocked
system.l2cache.demand_mshr_misses::.cpu.inst          487                       # number of demand (read+write) MSHR misses
system.l2cache.demand_mshr_misses::.cpu.data          251                       # number of demand (read+write) MSHR misses
system.l2cache.demand_mshr_misses::total          738                       # number of demand (read+write) MSHR misses
system.l2cache.overall_mshr_misses::.cpu.inst          487                       # number of overall MSHR misses
system.l2cache.overall_mshr_misses::.cpu.data          251                       # number of overall MSHR misses
system.l2cache.overall_mshr_misses::total          738                       # number of overall MSHR misses
system.l2cache.demand_mshr_miss_latency::.cpu.inst     38926000                       # number of demand (read+write) MSHR miss cycles
system.l2cache.demand_mshr_miss_latency::.cpu.data     20753000                       # number of demand (read+write) MSHR miss cycles
system.l2cache.demand_mshr_miss_latency::total     59679000                       # number of demand (read+write) MSHR miss cycles
system.l2cache.overall_mshr_miss_latency::.cpu.inst     38926000                       # number of overall MSHR miss cycles
system.l2cache.overall_mshr_miss_latency::.cpu.data     20753000                       # number of overall MSHR miss cycles
system.l2cache.overall_mshr_miss_latency::total     59679000                       # number of overall MSHR miss cycles
system.l2cache.demand_mshr_miss_rate::.cpu.inst            1                       # mshr miss rate for demand accesses
system.l2cache.demand_mshr_miss_rate::.cpu.data            1                       # mshr miss rate for demand accesses
[...]
system.mem_ctrl.wrQLenPdf::61                       0                       # What write queue length does an incoming req see
system.mem_ctrl.wrQLenPdf::62                       0                       # What write queue length does an incoming req see
system.mem_ctrl.wrQLenPdf::63                       0                       # What write queue length does an incoming req see
system.mem_ctrl.bytesReadWrQ                        0                       # Total number of bytes read from write queue
system.mem_ctrl.bytesReadSys                    47232                       # Total read bytes from the system interface side
system.mem_ctrl.bytesWrittenSys                     0                       # Total written bytes from the system interface side
system.mem_ctrl.avgRdBWSys                     682.47                       # Average system read bandwidth in MiByte/s
system.mem_ctrl.avgWrBWSys                       0.00                       # Average system write bandwidth in MiByte/s
system.mem_ctrl.totGap                       69087000                       # Total gap between requests
system.mem_ctrl.avgGap                       93613.82                       # Average gap between requests
system.mem_ctrl.requestorReadBytes::.cpu.inst        31168                       # Per-requestor bytes read from memory
system.mem_ctrl.requestorReadBytes::.cpu.data        16064                       # Per-requestor bytes read from memory
system.mem_ctrl.requestorReadRate::.cpu.inst 450359067.724363148212                       # Per-requestor bytes read from memory rate (Bytes/sec)
system.mem_ctrl.requestorReadRate::.cpu.data 232115248.457525968552                       # Per-requestor bytes read from memory rate (Bytes/sec)
system.mem_ctrl.requestorReadAccesses::.cpu.inst          487                       # Per-requestor read serviced memory accesses
system.mem_ctrl.requestorReadAccesses::.cpu.data          251                       # Per-requestor read serviced memory accesses
system.mem_ctrl.requestorReadTotalLat::.cpu.inst     13916500                       # Per-requestor read total memory access latency
system.mem_ctrl.requestorReadTotalLat::.cpu.data      7859500                       # Per-requestor read total memory access latency
system.mem_ctrl.requestorReadAvgLat::.cpu.inst     28575.98                       # Per-requestor read average memory access latency
system.mem_ctrl.requestorReadAvgLat::.cpu.data     31312.75                       # Per-requestor read average memory access latency
system.mem_ctrl.dram.bytes_read::.cpu.inst        31168                       # Number of bytes read from this memory
system.mem_ctrl.dram.bytes_read::.cpu.data        16064                       # Number of bytes read from this memory
system.mem_ctrl.dram.bytes_read::total          47232                       # Number of bytes read from this memory
system.mem_ctrl.dram.bytes_inst_read::.cpu.inst        31168                       # Number of instructions bytes read from this memory
system.mem_ctrl.dram.bytes_inst_read::total        31168                       # Number of instructions bytes read from this memory
system.mem_ctrl.dram.num_reads::.cpu.inst          487                       # Number of read requests responded to by this memory
system.mem_ctrl.dram.num_reads::.cpu.data          251                       # Number of read requests responded to by this memory
system.mem_ctrl.dram.num_reads::total             738                       # Number of read requests responded to by this memory
system.mem_ctrl.dram.bw_read::.cpu.inst     450359068                       # Total read bandwidth from this memory (bytes/s)
system.mem_ctrl.dram.bw_read::.cpu.data     232115248                       # Total read bandwidth from this memory (bytes/s)
system.mem_ctrl.dram.bw_read::total         682474316                       # Total read bandwidth from this memory (bytes/s)
system.mem_ctrl.dram.bw_inst_read::.cpu.inst    450359068                       # Instruction read bandwidth from this memory (bytes/s)
system.mem_ctrl.dram.bw_inst_read::total    450359068                       # Instruction read bandwidth from this memory (bytes/s)
system.mem_ctrl.dram.bw_total::.cpu.inst    450359068                       # Total bandwidth to/from this memory (bytes/s)
system.mem_ctrl.dram.bw_total::.cpu.data    232115248                       # Total bandwidth to/from this memory (bytes/s)
system.mem_ctrl.dram.bw_total::total        682474316                       # Total bandwidth to/from this memory (bytes/s)
system.mem_ctrl.dram.readBursts                   738                       # Number of DRAM read bursts
system.mem_ctrl.dram.writeBursts                    0                       # Number of DRAM write bursts
system.mem_ctrl.dram.perBankRdBursts::0            93                       # Per bank write bursts
system.mem_ctrl.dram.perBankRdBursts::1            94                       # Per bank write bursts
system.mem_ctrl.dram.perBankRdBursts::2            18                       # Per bank write bursts
system.mem_ctrl.dram.perBankRdBursts::3            57                       # Per bank write bursts
system.mem_ctrl.dram.perBankRdBursts::4             7                       # Per bank write bursts
system.mem_ctrl.dram.perBankRdBursts::5            17                       # Per bank write bursts
system.mem_ctrl.dram.perBankRdBursts::6            73                       # Per bank write bursts
system.mem_ctrl.dram.perBankRdBursts::7            43                       # Per bank write bursts
system.mem_ctrl.dram.perBankRdBursts::8            14                       # Per bank write bursts
system.mem_ctrl.dram.perBankRdBursts::9            10                       # Per bank write bursts
system.mem_ctrl.dram.perBankRdBursts::10           14                       # Per bank write bursts
system.mem_ctrl.dram.perBankRdBursts::11           34                       # Per bank write bursts
system.mem_ctrl.dram.perBankRdBursts::12           64                       # Per bank write bursts
system.mem_ctrl.dram.perBankRdBursts::13           16                       # Per bank write bursts
system.mem_ctrl.dram.perBankRdBursts::14           74                       # Per bank write bursts
system.mem_ctrl.dram.perBankRdBursts::15          110                       # Per bank write bursts
system.mem_ctrl.dram.perBankWrBursts::0             0                       # Per bank write bursts
system.mem_ctrl.dram.perBankWrBursts::1             0                       # Per bank write bursts
system.mem_ctrl.dram.perBankWrBursts::2             0                       # Per bank write bursts
system.mem_ctrl.dram.perBankWrBursts::3             0                       # Per bank write bursts
system.mem_ctrl.dram.perBankWrBursts::4             0                       # Per bank write bursts
system.mem_ctrl.dram.perBankWrBursts::5             0                       # Per bank write bursts
system.mem_ctrl.dram.perBankWrBursts::6             0                       # Per bank write bursts
system.mem_ctrl.dram.perBankWrBursts::7             0                       # Per bank write bursts
system.mem_ctrl.dram.perBankWrBursts::8             0                       # Per bank write bursts
system.mem_ctrl.dram.perBankWrBursts::9             0                       # Per bank write bursts
system.mem_ctrl.dram.perBankWrBursts::10            0                       # Per bank write bursts
system.mem_ctrl.dram.perBankWrBursts::11            0                       # Per bank write bursts
system.mem_ctrl.dram.perBankWrBursts::12            0                       # Per bank write bursts
system.mem_ctrl.dram.perBankWrBursts::13            0                       # Per bank write bursts
system.mem_ctrl.dram.perBankWrBursts::14            0                       # Per bank write bursts
system.mem_ctrl.dram.perBankWrBursts::15            0                       # Per bank write bursts
system.mem_ctrl.dram.totQLat                  7938500                       # Total ticks spent queuing
system.mem_ctrl.dram.totBusLat                3690000                       # Total ticks spent in databus transfers
system.mem_ctrl.dram.totMemAccLat            21776000                       # Total ticks spent from burst creation until serviced by the DRAM
system.mem_ctrl.dram.avgQLat                 10756.78                       # Average queueing delay per DRAM burst
system.mem_ctrl.dram.avgBusLat                5000.00                       # Average bus latency per DRAM burst
system.mem_ctrl.dram.avgMemAccLat            29506.78                       # Average memory access latency per DRAM burst
system.mem_ctrl.dram.readRowHits                  546                       # Number of row buffer hits during reads
system.mem_ctrl.dram.writeRowHits                   0                       # Number of row buffer hits during writes
system.mem_ctrl.dram.readRowHitRate             73.98                       # Row buffer hit rate for reads
system.mem_ctrl.dram.writeRowHitRate              nan                       # Row buffer hit rate for writes
system.mem_ctrl.dram.bytesPerActivate::samples          183                       # Bytes accessed per row activation
system.mem_ctrl.dram.bytesPerActivate::mean   244.109290                       # Bytes accessed per row activation
system.mem_ctrl.dram.bytesPerActivate::gmean   156.800356                       # Bytes accessed per row activation
system.mem_ctrl.dram.bytesPerActivate::stdev   264.801790                       # Bytes accessed per row activation
system.mem_ctrl.dram.bytesPerActivate::0-127           68     37.16%     37.16% # Bytes accessed per row activation
system.mem_ctrl.dram.bytesPerActivate::128-255           59     32.24%     69.40% # Bytes accessed per row activation
system.mem_ctrl.dram.bytesPerActivate::256-383           18      9.84%     79.23% # Bytes accessed per row activation
system.mem_ctrl.dram.bytesPerActivate::384-511            8      4.37%     83.61% # Bytes accessed per row activation
system.mem_ctrl.dram.bytesPerActivate::512-639           10      5.46%     89.07% # Bytes accessed per row activation
system.mem_ctrl.dram.bytesPerActivate::640-767            6      3.28%     92.35% # Bytes accessed per row activation
system.mem_ctrl.dram.bytesPerActivate::768-895            2      1.09%     93.44% # Bytes accessed per row activation
system.mem_ctrl.dram.bytesPerActivate::896-1023            1      0.55%     93.99% # Bytes accessed per row activation
system.mem_ctrl.dram.bytesPerActivate::1024-1151           11      6.01%    100.00% # Bytes accessed per row activation
system.mem_ctrl.dram.bytesPerActivate::total          183                       # Bytes accessed per row activation
system.mem_ctrl.dram.bytesRead                  47232                       # Total number of bytes read from DRAM
system.mem_ctrl.dram.bytesWritten                   0                       # Total number of bytes written to DRAM
system.mem_ctrl.dram.avgRdBW               682.474316                       # Average DRAM read bandwidth in MiBytes/s
system.mem_ctrl.dram.avgWrBW                        0                       # Average DRAM write bandwidth in MiBytes/s
system.mem_ctrl.dram.peakBW                  12800.00                       # Theoretical peak bandwidth in MiByte/s
system.mem_ctrl.dram.busUtil                     5.33                       # Data bus utilization in percentage
system.mem_ctrl.dram.busUtilRead                 5.33                       # Data bus utilization in percentage for reads
system.mem_ctrl.dram.busUtilWrite                0.00                       # Data bus utilization in percentage for writes
system.mem_ctrl.dram.pageHitRate                73.98                       # Row buffer hit rate, read and write combined
system.mem_ctrl.dram.power_state.pwrStateResidencyTicks::UNDEFINED     69207000                       # Cumulative time (in ticks) in various power states
system.mem_ctrl.dram.rank0.actEnergy           842520                       # Energy for activate commands per rank (pJ)
system.mem_ctrl.dram.rank0.preEnergy           428835                       # Energy for precharge commands per rank (pJ)
system.mem_ctrl.dram.rank0.readEnergy         2870280                       # Energy for read commands per rank (pJ)
system.mem_ctrl.dram.rank0.writeEnergy              0                       # Energy for write commands per rank (pJ)
system.mem_ctrl.dram.rank0.refreshEnergy 4917120.000000                       # Energy for refresh commands per rank (pJ)
system.mem_ctrl.dram.rank0.actBackEnergy     24761940                       # Energy for active background per rank (pJ)
system.mem_ctrl.dram.rank0.preBackEnergy      5723520                       # Energy for precharge background per rank (pJ)
system.mem_ctrl.dram.rank0.actPowerDownEnergy            0                       # Energy for active power-down per rank (pJ)
system.mem_ctrl.dram.rank0.prePowerDownEnergy            0                       # Energy for precharge power-down per rank (pJ)
system.mem_ctrl.dram.rank0.selfRefreshEnergy            0                       # Energy for self refresh per rank (pJ)
system.mem_ctrl.dram.rank0.totalEnergy       39544215                       # Total energy per rank (pJ)
system.mem_ctrl.dram.rank0.averagePower    571.390394                       # Core power per rank (mW)
system.mem_ctrl.dram.rank0.totalIdleTime            0                       # Total Idle time Per DRAM Rank
system.mem_ctrl.dram.rank0.pwrStateTime::IDLE     14695750                       # Time in different power states
system.mem_ctrl.dram.rank0.pwrStateTime::REF      2080000                       # Time in different power states
system.mem_ctrl.dram.rank0.pwrStateTime::SREF            0                       # Time in different power states
system.mem_ctrl.dram.rank0.pwrStateTime::PRE_PDN            0                       # Time in different power states
system.mem_ctrl.dram.rank0.pwrStateTime::ACT     52431250                       # Time in different power states
system.mem_ctrl.dram.rank0.pwrStateTime::ACT_PDN            0                       # Time in different power states
system.mem_ctrl.dram.rank1.actEnergy           528360                       # Energy for activate commands per rank (pJ)
system.mem_ctrl.dram.rank1.preEnergy           265650                       # Energy for precharge commands per rank (pJ)
system.mem_ctrl.dram.rank1.readEnergy         2399040                       # Energy for read commands per rank (pJ)
system.mem_ctrl.dram.rank1.writeEnergy              0                       # Energy for write commands per rank (pJ)
system.mem_ctrl.dram.rank1.refreshEnergy 4917120.000000                       # Energy for refresh commands per rank (pJ)
system.mem_ctrl.dram.rank1.actBackEnergy     26050710                       # Energy for active background per rank (pJ)
system.mem_ctrl.dram.rank1.preBackEnergy      4638240                       # Energy for precharge background per rank (pJ)
system.mem_ctrl.dram.rank1.actPowerDownEnergy            0                       # Energy for active power-down per rank (pJ)
system.mem_ctrl.dram.rank1.prePowerDownEnergy            0                       # Energy for precharge power-down per rank (pJ)
system.mem_ctrl.dram.rank1.selfRefreshEnergy            0                       # Energy for self refresh per rank (pJ)
system.mem_ctrl.dram.rank1.totalEnergy       38799120                       # Total energy per rank (pJ)
system.mem_ctrl.dram.rank1.averagePower    560.624214                       # Core power per rank (mW)
system.mem_ctrl.dram.rank1.totalIdleTime            0                       # Total Idle time Per DRAM Rank
system.mem_ctrl.dram.rank1.pwrStateTime::IDLE     11843750                       # Time in different power states
system.mem_ctrl.dram.rank1.pwrStateTime::REF      2080000                       # Time in different power states
system.mem_ctrl.dram.rank1.pwrStateTime::SREF            0                       # Time in different power states
system.mem_ctrl.dram.rank1.pwrStateTime::PRE_PDN            0                       # Time in different power states
system.mem_ctrl.dram.rank1.pwrStateTime::ACT     55283250                       # Time in different power states
system.mem_ctrl.dram.rank1.pwrStateTime::ACT_PDN            0                       # Time in different power states
system.mem_ctrl.power_state.pwrStateResidencyTicks::UNDEFINED     69207000                       # Cumulative time (in ticks) in various power states
system.membus.trans_dist::ReadResp                620                       # Transaction distribution
system.membus.trans_dist::CleanEvict              247                       # Transaction distribution
system.membus.trans_dist::ReadExReq               118                       # Transaction distribution
system.membus.trans_dist::ReadExResp              118                       # Transaction distribution
system.membus.trans_dist::ReadSharedReq           620                       # Transaction distribution
system.membus.pkt_count_system.l2cache.mem_side_port::system.mem_ctrl.port         1723                       # Packet count per connected requestor and responder (bytes)
system.membus.pkt_count_system.l2cache.mem_side_port::total         1723                       # Packet count per connected requestor and responder (bytes)
system.membus.pkt_count::total                   1723                       # Packet count per connected requestor and responder (bytes)
system.membus.pkt_size_system.l2cache.mem_side_port::system.mem_ctrl.port        47232                       # Cumulative packet size per connected requestor and responder (bytes)
system.membus.pkt_size_system.l2cache.mem_side_port::total        47232                       # Cumulative packet size per connected requestor and responder (bytes)
system.membus.pkt_size::total                   47232                       # Cumulative packet size per connected requestor and responder (bytes)
system.membus.snoops                                0                       # Total snoops (count)
system.membus.snoopTraffic                          0                       # Total snoop traffic (bytes)
system.membus.snoop_fanout::samples               738                       # Request fanout histogram
system.membus.snoop_fanout::mean                    0                       # Request fanout histogram
system.membus.snoop_fanout::stdev                   0                       # Request fanout histogram
system.membus.snoop_fanout::underflows              0      0.00%      0.00% # Request fanout histogram
system.membus.snoop_fanout::0                     738    100.00%    100.00% # Request fanout histogram
system.membus.snoop_fanout::1                       0      0.00%    100.00% # Request fanout histogram
system.membus.snoop_fanout::overflows               0      0.00%    100.00% # Request fanout histogram
system.membus.snoop_fanout::min_value               0                       # Request fanout histogram
system.membus.snoop_fanout::max_value               0                       # Request fanout histogram
system.membus.snoop_fanout::total                 738                       # Request fanout histogram
system.membus.power_state.pwrStateResidencyTicks::UNDEFINED     69207000                       # Cumulative time (in ticks) in various power states
system.membus.reqLayer2.occupancy              985000                       # Layer occupancy (ticks)
system.membus.reqLayer2.utilization               1.4                       # Layer utilization (%)
system.membus.respLayer0.occupancy            3928000                       # Layer occupancy (ticks)
system.membus.respLayer0.utilization              5.7                       # Layer utilization (%)

---------- End Simulation Statistics   ----------
