
---------- Begin Simulation Statistics ----------
final_tick                               794478790000                       # Number of ticks from beginning of simulation (restored from checkpoints and never reset)
host_inst_rate                                 421961                       # Simulator instruction rate (inst/s)
host_mem_usage                                 674448                       # Number of bytes of host memory used
host_op_rate                                   679813                       # Simulator op (including micro ops) rate (op/s)
host_seconds                                   385.06                       # Real time elapsed on the host
host_tick_rate                             2063234135                       # Simulator tick rate (ticks/s)
sim_freq                                 1000000000000                       # Frequency of simulated ticks
sim_insts                                   162482108                       # Number of instructions simulated
sim_ops                                     261772084                       # Number of ops (including micro ops) simulated
sim_seconds                                  0.794479                       # Number of seconds simulated
sim_ticks                                794478790000                       # Number of ticks simulated
system.cpu.Branches                           1513276                       # Number of branches fetched
system.cpu.committedInsts                   162482108                       # Number of instructions committed
system.cpu.committedOps                     261772084                       # Number of ops (including micro ops) committed
system.cpu.idle_fraction                     0.000000                       # Percentage of idle cycles
system.cpu.not_idle_fraction                 1.000000                       # Percentage of non-idle cycles
system.cpu.numCycles                        794478790                       # number of cpu cycles simulated
system.cpu.numWorkItemsCompleted                    0                       # number of work items this cpu completed
system.cpu.numWorkItemsStarted                      0                       # number of work items this cpu started
system.cpu.num_busy_cycles               794478789.999000                       # Number of busy cycles
system.cpu.num_cc_register_reads              7365397                       # number of times the CC registers were read
system.cpu.num_cc_register_writes            11742794                       # number of times the CC registers were written
system.cpu.num_conditional_control_insts      1421658                       # number of instructions that are conditional controls
system.cpu.num_fp_alu_accesses              228031846                       # Number of float alu accesses
system.cpu.num_fp_insts                     228031846                       # number of float instructions
system.cpu.num_fp_register_reads            368336050                       # number of times the floating registers were read
system.cpu.num_fp_register_writes           210807642                       # number of times the floating registers were written
system.cpu.num_func_calls                       53430                       # number of times a function call or return occured
system.cpu.num_idle_cycles                   0.001000                       # Number of idle cycles
system.cpu.num_int_alu_accesses             103312565                       # Number of integer alu accesses
system.cpu.num_int_insts                    103312565                       # number of integer instructions
system.cpu.num_int_register_reads           260490926                       # number of times the integer registers were read
system.cpu.num_int_register_writes           28267120                       # number of times the integer registers were written
system.cpu.num_load_insts                    54401380                       # Number of load instructions
system.cpu.num_mem_refs                      75494990                       # number of memory refs
system.cpu.num_store_insts                   21093610                       # Number of store instructions
system.cpu.num_vec_alu_accesses                     0                       # Number of vector alu accesses
system.cpu.num_vec_insts                            0                       # number of vector instructions
system.cpu.num_vec_register_reads                   0                       # number of times the vector registers were read
system.cpu.num_vec_register_writes                  0                       # number of times the vector registers were written
system.cpu.op_class::No_OpClass                114297      0.04%      0.04% # Class of executed instruction
system.cpu.op_class::IntAlu                  64498434     24.64%     24.68% # Class of executed instruction
system.cpu.op_class::IntMult                    19665      0.01%     24.69% # Class of executed instruction
system.cpu.op_class::IntDiv                      1316      0.00%     24.69% # Class of executed instruction
system.cpu.op_class::FloatAdd                26235189     10.02%     34.71% # Class of executed instruction
system.cpu.op_class::FloatCmp                       0      0.00%     34.71% # Class of executed instruction
system.cpu.op_class::FloatCvt                       0      0.00%     34.71% # Class of executed instruction
system.cpu.op_class::FloatMult                      0      0.00%     34.71% # Class of executed instruction
system.cpu.op_class::FloatMultAcc                   0      0.00%     34.71% # Class of executed instruction
system.cpu.op_class::FloatDiv                       0      0.00%     34.71% # Class of executed instruction
system.cpu.op_class::FloatMisc                      0      0.00%     34.71% # Class of executed instruction
system.cpu.op_class::FloatSqrt                      0      0.00%     34.71% # Class of executed instruction
system.cpu.op_class::SimdAdd                     8730      0.00%     34.72% # Class of executed instruction
system.cpu.op_class::SimdAddAcc                     0      0.00%     34.72% # Class of executed instruction
system.cpu.op_class::SimdAlu                  8054809      3.08%     37.79% # Class of executed instruction
system.cpu.op_class::SimdCmp                       18      0.00%     37.79% # Class of executed instruction
system.cpu.op_class::SimdCvt                     1500      0.00%     37.79% # Class of executed instruction
system.cpu.op_class::SimdMisc                  476679      0.18%     37.98% # Class of executed instruction
system.cpu.op_class::SimdMult                       0      0.00%     37.98% # Class of executed instruction
system.cpu.op_class::SimdMultAcc                    0      0.00%     37.98% # Class of executed instruction
system.cpu.op_class::SimdShift                      9      0.00%     37.98% # Class of executed instruction
system.cpu.op_class::SimdShiftAcc                   0      0.00%     37.98% # Class of executed instruction
system.cpu.op_class::SimdDiv                        0      0.00%     37.98% # Class of executed instruction
system.cpu.op_class::SimdSqrt                       0      0.00%     37.98% # Class of executed instruction
system.cpu.op_class::SimdFloatAdd            34232648     13.08%     51.05% # Class of executed instruction
system.cpu.op_class::SimdFloatAlu                   0      0.00%     51.05% # Class of executed instruction
system.cpu.op_class::SimdFloatCmp                   0      0.00%     51.05% # Class of executed instruction
system.cpu.op_class::SimdFloatCvt              101836      0.04%     51.09% # Class of executed instruction
system.cpu.op_class::SimdFloatDiv             1077659      0.41%     51.50% # Class of executed instruction
system.cpu.op_class::SimdFloatMisc                  0      0.00%     51.50% # Class of executed instruction
system.cpu.op_class::SimdFloatMult           51454394     19.66%     71.16% # Class of executed instruction
system.cpu.op_class::SimdFloatMultAcc               0      0.00%     71.16% # Class of executed instruction
system.cpu.op_class::SimdFloatSqrt                 25      0.00%     71.16% # Class of executed instruction
system.cpu.op_class::SimdReduceAdd                  0      0.00%     71.16% # Class of executed instruction
system.cpu.op_class::SimdReduceAlu                  0      0.00%     71.16% # Class of executed instruction
system.cpu.op_class::SimdReduceCmp                  0      0.00%     71.16% # Class of executed instruction
system.cpu.op_class::SimdFloatReduceAdd             0      0.00%     71.16% # Class of executed instruction
system.cpu.op_class::SimdFloatReduceCmp             0      0.00%     71.16% # Class of executed instruction
system.cpu.op_class::SimdAes                        0      0.00%     71.16% # Class of executed instruction
system.cpu.op_class::SimdAesMix                     0      0.00%     71.16% # Class of executed instruction
system.cpu.op_class::SimdSha1Hash                   0      0.00%     71.16% # Class of executed instruction
system.cpu.op_class::SimdSha1Hash2                  0      0.00%     71.16% # Class of executed instruction
system.cpu.op_class::SimdSha256Hash                 0      0.00%     71.16% # Class of executed instruction
system.cpu.op_class::SimdSha256Hash2                0      0.00%     71.16% # Class of executed instruction
system.cpu.op_class::SimdShaSigma2                  0      0.00%     71.16% # Class of executed instruction
system.cpu.op_class::SimdShaSigma3                  0      0.00%     71.16% # Class of executed instruction
system.cpu.op_class::SimdPredAlu                    0      0.00%     71.16% # Class of executed instruction
system.cpu.op_class::MemRead                  2072675      0.79%     71.95% # Class of executed instruction
system.cpu.op_class::MemWrite                 3871050      1.48%     73.43% # Class of executed instruction
system.cpu.op_class::FloatMemRead            52328705     19.99%     93.42% # Class of executed instruction
system.cpu.op_class::FloatMemWrite           17222560      6.58%    100.00% # Class of executed instruction
system.cpu.op_class::IprAccess                      0      0.00%    100.00% # Class of executed instruction
system.cpu.op_class::InstPrefetch                   0      0.00%    100.00% # Class of executed instruction
system.cpu.op_class::total                  261772198                       # Class of executed instruction
system.cpu.workload.numSyscalls                    89                       # Number of system calls
system.l2bus.snoop_filter.hit_multi_requests            0                       # Number of requests hitting in the snoop filter with multiple (>1) holders of the requested data.
system.l2bus.snoop_filter.hit_multi_snoops            0                       # Number of snoops hitting in the snoop filter with multiple (>1) holders of the requested data.
system.l2bus.snoop_filter.hit_single_requests      3054373                       # Number of requests hitting in the snoop filter with a single holder of the requested data.
system.l2bus.snoop_filter.hit_single_snoops       374730                       # Number of snoops hitting in the snoop filter with a single holder of the requested data.
system.l2bus.snoop_filter.tot_requests        6110026                       # Total number of requests made to the snoop filter.
system.l2bus.snoop_filter.tot_snoops           374730                       # Total number of snoops made to the snoop filter.
system.membus.snoop_filter.hit_multi_requests            0                       # Number of requests hitting in the snoop filter with multiple (>1) holders of the requested data.
system.membus.snoop_filter.hit_multi_snoops            0                       # Number of snoops hitting in the snoop filter with multiple (>1) holders of the requested data.
system.membus.snoop_filter.hit_single_requests       792017                       # Number of requests hitting in the snoop filter with a single holder of the requested data.
system.membus.snoop_filter.hit_single_snoops            0                       # Number of snoops hitting in the snoop filter with a single holder of the requested data.
system.membus.snoop_filter.tot_requests       1586406                       # Total number of requests made to the snoop filter.
system.membus.snoop_filter.tot_snoops               0                       # Total number of snoops made to the snoop filter.
system.clk_domain.clock                          1000                       # Clock period in ticks
system.clk_domain.voltage_domain.voltage            1                       # Voltage in Volts
system.cpu.dcache.demand_hits::.cpu.data     72495175                       # number of demand (read+write) hits
system.cpu.dcache.demand_hits::total         72495175                       # number of demand (read+write) hits
system.cpu.dcache.overall_hits::.cpu.data     72495175                       # number of overall hits
system.cpu.dcache.overall_hits::total        72495175                       # number of overall hits
system.cpu.dcache.demand_misses::.cpu.data      2999950                       # number of demand (read+write) misses
system.cpu.dcache.demand_misses::total        2999950                       # number of demand (read+write) misses
system.cpu.dcache.overall_misses::.cpu.data      2999950                       # number of overall misses
system.cpu.dcache.overall_misses::total       2999950                       # number of overall misses
system.cpu.dcache.demand_miss_latency::.cpu.data 136462357000                       # number of demand (read+write) miss cycles
system.cpu.dcache.demand_miss_latency::total 136462357000                       # number of demand (read+write) miss cycles
system.cpu.dcache.overall_miss_latency::.cpu.data 136462357000                       # number of overall miss cycles
system.cpu.dcache.overall_miss_latency::total 136462357000                       # number of overall miss cycles
system.cpu.dcache.demand_accesses::.cpu.data     75495125                       # number of demand (read+write) accesses
system.cpu.dcache.demand_accesses::total     75495125                       # number of demand (read+write) accesses
system.cpu.dcache.overall_accesses::.cpu.data     75495125                       # number of overall (read+write) accesses
system.cpu.dcache.overall_accesses::total     75495125                       # number of overall (read+write) accesses
system.cpu.dcache.demand_miss_rate::.cpu.data     0.039737                       # miss rate for demand accesses
system.cpu.dcache.demand_miss_rate::total     0.039737                       # miss rate for demand accesses
system.cpu.dcache.overall_miss_rate::.cpu.data     0.039737                       # miss rate for overall accesses
system.cpu.dcache.overall_miss_rate::total     0.039737                       # miss rate for overall accesses
system.cpu.dcache.demand_avg_miss_latency::.cpu.data 45488.210470                       # average overall miss latency
system.cpu.dcache.demand_avg_miss_latency::total 45488.210470                       # average overall miss latency
system.cpu.dcache.overall_avg_miss_latency::.cpu.data 45488.210470                       # average overall miss latency
system.cpu.dcache.overall_avg_miss_latency::total 45488.210470                       # average overall miss latency
system.cpu.dcache.blocked_cycles::no_mshrs            0                       # number of cycles access was blocked
system.cpu.dcache.blocked_cycles::no_targets            0                       # number of cycles access was blocked
system.cpu.dcache.blocked::no_mshrs                 0                       # number of cycles access was blocked
system.cpu.dcache.blocked::no_targets               0                       # number of cycles access was blocked
system.cpu.dcache.avg_blocked_cycles::no_mshrs          nan                       # average number of cycles each access was blocked
system.cpu.dcache.avg_blocked_cycles::no_targets          nan                       # average number of cycles each access was blocked
system.cpu.dcache.writebacks::.writebacks      2418803                       # number of writebacks
system.cpu.dcache.writebacks::total           2418803                       # number of writebacks
system.cpu.dcache.demand_mshr_misses::.cpu.data      2999950                       # number of demand (read+write) MSHR misses
system.cpu.dcache.demand_mshr_misses::total      2999950                       # number of demand (read+write) MSHR misses
system.cpu.dcache.overall_mshr_misses::.cpu.data      2999950                       # number of overall MSHR misses
system.cpu.dcache.overall_mshr_misses::total      2999950                       # number of overall MSHR misses
system.cpu.dcache.demand_mshr_miss_latency::.cpu.data 130462457000                       # number of demand (read+write) MSHR miss cycles
system.cpu.dcache.demand_mshr_miss_latency::total 130462457000                       # number of demand (read+write) MSHR miss cycles
system.cpu.dcache.overall_mshr_miss_latency::.cpu.data 130462457000                       # number of overall MSHR miss cycles
system.cpu.dcache.overall_mshr_miss_latency::total 130462457000                       # number of overall MSHR miss cycles
system.cpu.dcache.demand_mshr_miss_rate::.cpu.data     0.039737                       # mshr miss rate for demand accesses
system.cpu.dcache.demand_mshr_miss_rate::total     0.039737                       # mshr miss rate for demand accesses
system.cpu.dcache.overall_mshr_miss_rate::.cpu.data     0.039737                       # mshr miss rate for overall accesses
system.cpu.dcache.overall_mshr_miss_rate::total     0.039737                       # mshr miss rate for overall accesses
system.cpu.dcache.demand_avg_mshr_miss_latency::.cpu.data 43488.210470                       # average overall mshr miss latency
system.cpu.dcache.demand_avg_mshr_miss_latency::total 43488.210470                       # average overall mshr miss latency
system.cpu.dcache.overall_avg_mshr_miss_latency::.cpu.data 43488.210470                       # average overall mshr miss latency
system.cpu.dcache.overall_avg_mshr_miss_latency::total 43488.210470                       # average overall mshr miss latency
system.cpu.dcache.replacements                2998926                       # number of replacements
system.cpu.dcache.ReadReq_hits::.cpu.data     52517212                       # number of ReadReq hits
system.cpu.dcache.ReadReq_hits::total        52517212                       # number of ReadReq hits
system.cpu.dcache.ReadReq_misses::.cpu.data      1884286                       # number of ReadReq misses
system.cpu.dcache.ReadReq_misses::total       1884286                       # number of ReadReq misses
system.cpu.dcache.ReadReq_miss_latency::.cpu.data  93435826000                       # number of ReadReq miss cycles
system.cpu.dcache.ReadReq_miss_latency::total  93435826000                       # number of ReadReq miss cycles
system.cpu.dcache.ReadReq_accesses::.cpu.data     54401498                       # number of ReadReq accesses(hits+misses)
system.cpu.dcache.ReadReq_accesses::total     54401498                       # number of ReadReq accesses(hits+misses)
system.cpu.dcache.ReadReq_miss_rate::.cpu.data     0.034637                       # miss rate for ReadReq accesses
system.cpu.dcache.ReadReq_miss_rate::total     0.034637                       # miss rate for ReadReq accesses
system.cpu.dcache.ReadReq_avg_miss_latency::.cpu.data 49586.859957                       # average ReadReq miss latency
system.cpu.dcache.ReadReq_avg_miss_latency::total 49586.859957                       # average ReadReq miss latency
system.cpu.dcache.ReadReq_mshr_misses::.cpu.data      1884286                       # number of ReadReq MSHR misses
system.cpu.dcache.ReadReq_mshr_misses::total      1884286                       # number of ReadReq MSHR misses
system.cpu.dcache.ReadReq_mshr_miss_latency::.cpu.data  89667254000                       # number of ReadReq MSHR miss cycles
system.cpu.dcache.ReadReq_mshr_miss_latency::total  89667254000                       # number of ReadReq MSHR miss cycles
system.cpu.dcache.ReadReq_mshr_miss_rate::.cpu.data     0.034637                       # mshr miss rate for ReadReq accesses
system.cpu.dcache.ReadReq_mshr_miss_rate::total     0.034637                       # mshr miss rate for ReadReq accesses
system.cpu.dcache.ReadReq_avg_mshr_miss_latency::.cpu.data 47586.859957                       # average ReadReq mshr miss latency
system.cpu.dcache.ReadReq_avg_mshr_miss_latency::total 47586.859957                       # average ReadReq mshr miss latency
system.cpu.dcache.WriteReq_hits::.cpu.data     19977963                       # number of WriteReq hits
system.cpu.dcache.WriteReq_hits::total       19977963                       # number of WriteReq hits
system.cpu.dcache.WriteReq_misses::.cpu.data      1115664                       # number of WriteReq misses
system.cpu.dcache.WriteReq_misses::total      1115664                       # number of WriteReq misses
system.cpu.dcache.WriteReq_miss_latency::.cpu.data  43026531000                       # number of WriteReq miss cycles
system.cpu.dcache.WriteReq_miss_latency::total  43026531000                       # number of WriteReq miss cycles
system.cpu.dcache.WriteReq_accesses::.cpu.data     21093627                       # number of WriteReq accesses(hits+misses)
system.cpu.dcache.WriteReq_accesses::total     21093627                       # number of WriteReq accesses(hits+misses)
system.cpu.dcache.WriteReq_miss_rate::.cpu.data     0.052891                       # miss rate for WriteReq accesses
system.cpu.dcache.WriteReq_miss_rate::total     0.052891                       # miss rate for WriteReq accesses
system.cpu.dcache.WriteReq_avg_miss_latency::.cpu.data 38565.850471                       # average WriteReq miss latency
system.cpu.dcache.WriteReq_avg_miss_latency::total 38565.850471                       # average WriteReq miss latency
system.cpu.dcache.WriteReq_mshr_misses::.cpu.data      1115664                       # number of WriteReq MSHR misses
system.cpu.dcache.WriteReq_mshr_misses::total      1115664                       # number of WriteReq MSHR misses
system.cpu.dcache.WriteReq_mshr_miss_latency::.cpu.data  40795203000                       # number of WriteReq MSHR miss cycles
system.cpu.dcache.WriteReq_mshr_miss_latency::total  40795203000                       # number of WriteReq MSHR miss cycles
system.cpu.dcache.WriteReq_mshr_miss_rate::.cpu.data     0.052891                       # mshr miss rate for WriteReq accesses
system.cpu.dcache.WriteReq_mshr_miss_rate::total     0.052891                       # mshr miss rate for WriteReq accesses
system.cpu.dcache.WriteReq_avg_mshr_miss_latency::.cpu.data 36565.850471                       # average WriteReq mshr miss latency
system.cpu.dcache.WriteReq_avg_mshr_miss_latency::total 36565.850471                       # average WriteReq mshr miss latency
system.cpu.dcache.power_state.pwrStateResidencyTicks::UNDEFINED 794478790000                       # Cumulative time (in ticks) in various power states
system.cpu.dcache.tags.tagsinuse          1023.454906                       # Cycle average of tags in use
system.cpu.dcache.tags.total_refs            75495125                       # Total number of references to valid blocks.
system.cpu.dcache.tags.sampled_refs           2999950                       # Sample count of references to valid blocks.
system.cpu.dcache.tags.avg_refs             25.165461                       # Average number of references to valid blocks.
system.cpu.dcache.tags.warmup_cycle            224000                       # Cycle when the warmup percentage was hit.
system.cpu.dcache.tags.occ_blocks::.cpu.data  1023.454906                       # Average occupied blocks per requestor
system.cpu.dcache.tags.occ_percent::.cpu.data     0.999468                       # Average percentage of cache occupancy
system.cpu.dcache.tags.occ_percent::total     0.999468                       # Average percentage of cache occupancy
system.cpu.dcache.tags.occ_task_id_blocks::1024         1024                       # Occupied blocks per task id
system.cpu.dcache.tags.age_task_id_blocks_1024::0           26                       # Occupied blocks per task id
system.cpu.dcache.tags.age_task_id_blocks_1024::1          113                       # Occupied blocks per task id
system.cpu.dcache.tags.age_task_id_blocks_1024::2          470                       # Occupied blocks per task id
system.cpu.dcache.tags.age_task_id_blocks_1024::3          415                       # Occupied blocks per task id
system.cpu.dcache.tags.occ_task_id_percent::1024            1                       # Percentage of cache occupancy per task id
system.cpu.dcache.tags.tag_accesses         153990200                       # Number of tag accesses
system.cpu.dcache.tags.data_accesses        153990200                       # Number of data accesses
system.cpu.dcache.tags.power_state.pwrStateResidencyTicks::UNDEFINED 794478790000                       # Cumulative time (in ticks) in various power states
system.cpu.dtb.rdAccesses                    54401499                       # TLB accesses on read requests
system.cpu.dtb.wrAccesses                    21093651                       # TLB accesses on write requests
system.cpu.dtb.rdMisses                          5333                       # TLB misses on read requests
system.cpu.dtb.wrMisses                          2475                       # TLB misses on write requests
system.cpu.dtb.walker.power_state.pwrStateResidencyTicks::UNDEFINED 794478790000                       # Cumulative time (in ticks) in various power states
system.cpu.icache.demand_hits::.cpu.inst    254337932                       # number of demand (read+write) hits
system.cpu.icache.demand_hits::total        254337932                       # number of demand (read+write) hits
system.cpu.icache.overall_hits::.cpu.inst    254337932                       # number of overall hits
system.cpu.icache.overall_hits::total       254337932                       # number of overall hits
system.cpu.icache.demand_misses::.cpu.inst        55703                       # number of demand (read+write) misses
system.cpu.icache.demand_misses::total          55703                       # number of demand (read+write) misses
system.cpu.icache.overall_misses::.cpu.inst        55703                       # number of overall misses
system.cpu.icache.overall_misses::total         55703                       # number of overall misses
system.cpu.icache.demand_miss_latency::.cpu.inst   4350574000                       # number of demand (read+write) miss cycles
system.cpu.icache.demand_miss_latency::total   4350574000                       # number of demand (read+write) miss cycles
system.cpu.icache.overall_miss_latency::.cpu.inst   4350574000                       # number of overall miss cycles
system.cpu.icache.overall_miss_latency::total   4350574000                       # number of overall miss cycles
system.cpu.icache.demand_accesses::.cpu.inst    254393635                       # number of demand (read+write) accesses
system.cpu.icache.demand_accesses::total    254393635                       # number of demand (read+write) accesses
system.cpu.icache.overall_accesses::.cpu.inst    254393635                       # number of overall (read+write) accesses
system.cpu.icache.overall_accesses::total    254393635                       # number of overall (read+write) accesses
system.cpu.icache.demand_miss_rate::.cpu.inst     0.000219                       # miss rate for demand accesses
system.cpu.icache.demand_miss_rate::total     0.000219                       # miss rate for demand accesses
system.cpu.icache.overall_miss_rate::.cpu.inst     0.000219                       # miss rate for overall accesses
system.cpu.icache.overall_miss_rate::total     0.000219                       # miss rate for overall accesses
system.cpu.icache.demand_avg_miss_latency::.cpu.inst 78103.046515                       # average overall miss latency
system.cpu.icache.demand_avg_miss_latency::total 78103.046515                       # average overall miss latency
system.cpu.icache.overall_avg_miss_latency::.cpu.inst 78103.046515                       # average overall miss latency
system.cpu.icache.overall_avg_miss_latency::total 78103.046515                       # average overall miss latency
system.cpu.icache.blocked_cycles::no_mshrs            0                       # number of cycles access was blocked
system.cpu.icache.blocked_cycles::no_targets            0                       # number of cycles access was blocked
system.cpu.icache.blocked::no_mshrs                 0                       # number of cycles access was blocked
system.cpu.icache.blocked::no_targets               0                       # number of cycles access was blocked
system.cpu.icache.avg_blocked_cycles::no_mshrs          nan                       # average number of cycles each access was blocked
system.cpu.icache.avg_blocked_cycles::no_targets          nan                       # average number of cycles each access was blocked
system.cpu.icache.demand_mshr_misses::.cpu.inst        55703                       # number of demand (read+write) MSHR misses
system.cpu.icache.demand_mshr_misses::total        55703                       # number of demand (read+write) MSHR misses
system.cpu.icache.overall_mshr_misses::.cpu.inst        55703                       # number of overall MSHR misses
system.cpu.icache.overall_mshr_misses::total        55703                       # number of overall MSHR misses
system.cpu.icache.demand_mshr_miss_latency::.cpu.inst   4239168000                       # number of demand (read+write) MSHR miss cycles
system.cpu.icache.demand_mshr_miss_latency::total   4239168000                       # number of demand (read+write) MSHR miss cycles
system.cpu.icache.overall_mshr_miss_latency::.cpu.inst   4239168000                       # number of overall MSHR miss cycles
system.cpu.icache.overall_mshr_miss_latency::total   4239168000                       # number of overall MSHR miss cycles
system.cpu.icache.demand_mshr_miss_rate::.cpu.inst     0.000219                       # mshr miss rate for demand accesses
system.cpu.icache.demand_mshr_miss_rate::total     0.000219                       # mshr miss rate for demand accesses
system.cpu.icache.overall_mshr_miss_rate::.cpu.inst     0.000219                       # mshr miss rate for overall accesses
system.cpu.icache.overall_mshr_miss_rate::total     0.000219                       # mshr miss rate for overall accesses
system.cpu.icache.demand_avg_mshr_miss_latency::.cpu.inst 76103.046515                       # average overall mshr miss latency
system.cpu.icache.demand_avg_mshr_miss_latency::total 76103.046515                       # average overall mshr miss latency
system.cpu.icache.overall_avg_mshr_miss_latency::.cpu.inst 76103.046515                       # average overall mshr miss latency
system.cpu.icache.overall_avg_mshr_miss_latency::total 76103.046515                       # average overall mshr miss latency
system.cpu.icache.replacements                  55447                       # number of replacements
system.cpu.icache.ReadReq_hits::.cpu.inst    254337932                       # number of ReadReq hits
system.cpu.icache.ReadReq_hits::total       254337932                       # number of ReadReq hits
system.cpu.icache.ReadReq_misses::.cpu.inst        55703                       # number of ReadReq misses
system.cpu.icache.ReadReq_misses::total         55703                       # number of ReadReq misses
system.cpu.icache.ReadReq_miss_latency::.cpu.inst   4350574000                       # number of ReadReq miss cycles
system.cpu.icache.ReadReq_miss_latency::total   4350574000                       # number of ReadReq miss cycles
system.cpu.icache.ReadReq_accesses::.cpu.inst    254393635                       # number of ReadReq accesses(hits+misses)
system.cpu.icache.ReadReq_accesses::total    254393635                       # number of ReadReq accesses(hits+misses)
system.cpu.icache.ReadReq_miss_rate::.cpu.inst     0.000219                       # miss rate for ReadReq accesses
system.cpu.icache.ReadReq_miss_rate::total     0.000219                       # miss rate for ReadReq accesses
system.cpu.icache.ReadReq_avg_miss_latency::.cpu.inst 78103.046515                       # average ReadReq miss latency
system.cpu.icache.ReadReq_avg_miss_latency::total 78103.046515                       # average ReadReq miss latency
system.cpu.icache.ReadReq_mshr_misses::.cpu.inst        55703                       # number of ReadReq MSHR misses
system.cpu.icache.ReadReq_mshr_misses::total        55703                       # number of ReadReq MSHR misses
system.cpu.icache.ReadReq_mshr_miss_latency::.cpu.inst   4239168000                       # number of ReadReq MSHR miss cycles
system.cpu.icache.ReadReq_mshr_miss_latency::total   4239168000                       # number of ReadReq MSHR miss cycles
system.cpu.icache.ReadReq_mshr_miss_rate::.cpu.inst     0.000219                       # mshr miss rate for ReadReq accesses
system.cpu.icache.ReadReq_mshr_miss_rate::total     0.000219                       # mshr miss rate for ReadReq accesses
system.cpu.icache.ReadReq_avg_mshr_miss_latency::.cpu.inst 76103.046515                       # average ReadReq mshr miss latency
system.cpu.icache.ReadReq_avg_mshr_miss_latency::total 76103.046515                       # average ReadReq mshr miss latency
system.cpu.icache.power_state.pwrStateResidencyTicks::UNDEFINED 794478790000                       # Cumulative time (in ticks) in various power states
system.cpu.icache.tags.tagsinuse           255.983924                       # Cycle average of tags in use
system.cpu.icache.tags.total_refs           254393635                       # Total number of references to valid blocks.
system.cpu.icache.tags.sampled_refs             55703                       # Sample count of references to valid blocks.
system.cpu.icache.tags.avg_refs           4566.964706                       # Average number of references to valid blocks.
system.cpu.icache.tags.warmup_cycle            107000                       # Cycle when the warmup percentage was hit.
system.cpu.icache.tags.occ_blocks::.cpu.inst   255.983924                       # Average occupied blocks per requestor
system.cpu.icache.tags.occ_percent::.cpu.inst     0.999937                       # Average percentage of cache occupancy
system.cpu.icache.tags.occ_percent::total     0.999937                       # Average percentage of cache occupancy
system.cpu.icache.tags.occ_task_id_blocks::1024          256                       # Occupied blocks per task id
system.cpu.icache.tags.age_task_id_blocks_1024::0           32                       # Occupied blocks per task id
system.cpu.icache.tags.age_task_id_blocks_1024::1          107                       # Occupied blocks per task id
system.cpu.icache.tags.age_task_id_blocks_1024::2          108                       # Occupied blocks per task id
system.cpu.icache.tags.age_task_id_blocks_1024::3            9                       # Occupied blocks per task id
system.cpu.icache.tags.occ_task_id_percent::1024            1                       # Percentage of cache occupancy per task id
system.cpu.icache.tags.tag_accesses         508842973                       # Number of tag accesses
system.cpu.icache.tags.data_accesses        508842973                       # Number of data accesses
system.cpu.icache.tags.power_state.pwrStateResidencyTicks::UNDEFINED 794478790000                       # Cumulative time (in ticks) in various power states
system.cpu.interrupts.clk_domain.clock          16000                       # Clock period in ticks
system.cpu.itb.rdAccesses                           0                       # TLB accesses on read requests
system.cpu.itb.wrAccesses                   254393635                       # TLB accesses on write requests
system.cpu.itb.rdMisses                             0                       # TLB misses on read requests
system.cpu.itb.wrMisses                           138                       # TLB misses on write requests
system.cpu.itb.walker.power_state.pwrStateResidencyTicks::UNDEFINED 794478790000                       # Cumulative time (in ticks) in various power states
system.cpu.power_state.pwrStateResidencyTicks::ON 794478790000                       # Cumulative time (in ticks) in various power states
system.cpu.thread_0.numInsts                        0                       # Number of Instructions committed
system.cpu.thread_0.numOps                          0                       # Number of Ops committed
system.cpu.thread_0.numMemRefs                      0                       # Number of Memory References
system.l2bus.trans_dist::ReadResp             1939989                       # Transaction distribution
system.l2bus.trans_dist::WritebackDirty       2770933                       # Transaction distribution
system.l2bus.trans_dist::CleanEvict           1291606                       # Transaction distribution
system.l2bus.trans_dist::ReadExReq            1115664                       # Transaction distribution
system.l2bus.trans_dist::ReadExResp           1115664                       # Transaction distribution
system.l2bus.trans_dist::ReadSharedReq        1939989                       # Transaction distribution
system.l2bus.pkt_count_system.cpu.icache.mem_side_port::system.l2cache.cpu_side_port       166853                       # Packet count per connected requestor and responder (bytes)
system.l2bus.pkt_count_system.cpu.dcache.mem_side_port::system.l2cache.cpu_side_port      8998826                       # Packet count per connected requestor and responder (bytes)
system.l2bus.pkt_count::total                 9165679                       # Packet count per connected requestor and responder (bytes)
system.l2bus.pkt_size_system.cpu.icache.mem_side_port::system.l2cache.cpu_side_port      3564992                       # Cumulative packet size per connected requestor and responder (bytes)
system.l2bus.pkt_size_system.cpu.dcache.mem_side_port::system.l2cache.cpu_side_port    346800192                       # Cumulative packet size per connected requestor and responder (bytes)
system.l2bus.pkt_size::total                350365184                       # Cumulative packet size per connected requestor and responder (bytes)
system.l2bus.snoops                           1008166                       # Total snoops (count)
system.l2bus.snoopTraffic                    22536320                       # Total snoop traffic (bytes)
system.l2bus.snoop_fanout::samples            4063819                       # Request fanout histogram
system.l2bus.snoop_fanout::mean              0.092211                       # Request fanout histogram
system.l2bus.snoop_fanout::stdev             0.289324                       # Request fanout histogram
system.l2bus.snoop_fanout::underflows               0      0.00%      0.00% # Request fanout histogram
system.l2bus.snoop_fanout::0                  3689089     90.78%     90.78% # Request fanout histogram
system.l2bus.snoop_fanout::1                   374730      9.22%    100.00% # Request fanout histogram
system.l2bus.snoop_fanout::2                        0      0.00%    100.00% # Request fanout histogram
system.l2bus.snoop_fanout::overflows                0      0.00%    100.00% # Request fanout histogram
system.l2bus.snoop_fanout::min_value                0                       # Request fanout histogram
system.l2bus.snoop_fanout::max_value                1                       # Request fanout histogram
system.l2bus.snoop_fanout::total              4063819                       # Request fanout histogram
system.l2bus.power_state.pwrStateResidencyTicks::UNDEFINED 794478790000                       # Cumulative time (in ticks) in various power states
system.l2bus.reqLayer0.occupancy          10947632000                       # Layer occupancy (ticks)
system.l2bus.reqLayer0.utilization                1.4                       # Layer utilization (%)
system.l2bus.respLayer0.occupancy           167109000                       # Layer occupancy (ticks)
system.l2bus.respLayer0.utilization               0.0                       # Layer utilization (%)
system.l2bus.respLayer1.occupancy          8999850000                       # Layer occupancy (ticks)
system.l2bus.respLayer1.utilization               1.1                       # Layer utilization (%)
system.l2cache.demand_hits::.cpu.inst           17145                       # number of demand (read+write) hits
system.l2cache.demand_hits::.cpu.data         2244119                       # number of demand (read+write) hits
system.l2cache.demand_hits::total             2261264                       # number of demand (read+write) hits
system.l2cache.overall_hits::.cpu.inst          17145                       # number of overall hits
system.l2cache.overall_hits::.cpu.data        2244119                       # number of overall hits
system.l2cache.overall_hits::total            2261264                       # number of overall hits
system.l2cache.demand_misses::.cpu.inst         38558                       # number of demand (read+write) misses
system.l2cache.demand_misses::.cpu.data        755831                       # number of demand (read+write) misses
system.l2cache.demand_misses::total            794389                       # number of demand (read+write) misses
system.l2cache.overall_misses::.cpu.inst        38558                       # number of overall misses
system.l2cache.overall_misses::.cpu.data       755831                       # number of overall misses
system.l2cache.overall_misses::total           794389                       # number of overall misses
system.l2cache.demand_miss_latency::.cpu.inst   3711844000                       # number of demand (read+write) miss cycles
system.l2cache.demand_miss_latency::.cpu.data  74318690000                       # number of demand (read+write) miss cycles
system.l2cache.demand_miss_latency::total  78030534000                       # number of demand (read+write) miss cycles
system.l2cache.overall_miss_latency::.cpu.inst   3711844000                       # number of overall miss cycles
system.l2cache.overall_miss_latency::.cpu.data  74318690000                       # number of overall miss cycles
system.l2cache.overall_miss_latency::total  78030534000                       # number of overall miss cycles
system.l2cache.demand_accesses::.cpu.inst        55703                       # number of demand (read+write) accesses
system.l2cache.demand_accesses::.cpu.data      2999950                       # number of demand (read+write) accesses
system.l2cache.demand_accesses::total         3055653                       # number of demand (read+write) accesses
system.l2cache.overall_accesses::.cpu.inst        55703                       # number of overall (read+write) accesses
system.l2cache.overall_accesses::.cpu.data      2999950                       # number of overall (read+write) accesses
system.l2cache.overall_accesses::total        3055653                       # number of overall (read+write) accesses
system.l2cache.demand_miss_rate::.cpu.inst     0.692207                       # miss rate for demand accesses
system.l2cache.demand_miss_rate::.cpu.data     0.251948                       # miss rate for demand accesses
system.l2cache.demand_miss_rate::total       0.259974                       # miss rate for demand accesses
system.l2cache.overall_miss_rate::.cpu.inst     0.692207                       # miss rate for overall accesses
system.l2cache.overall_miss_rate::.cpu.data     0.251948                       # miss rate for overall accesses
system.l2cache.overall_miss_rate::total      0.259974                       # miss rate for overall accesses
system.l2cache.demand_avg_miss_latency::.cpu.inst 96266.507599                       # average overall miss latency
system.l2cache.demand_avg_miss_latency::.cpu.data 98327.126037                       # average overall miss latency
system.l2cache.demand_avg_miss_latency::total 98227.107878                       # average overall miss latency
system.l2cache.overall_avg_miss_latency::.cpu.inst 96266.507599                       # average overall miss latency
system.l2cache.overall_avg_miss_latency::.cpu.data 98327.126037                       # average overall miss latency
system.l2cache.overall_avg_miss_latency::total 98227.107878                       # average overall miss latency
system.l2cache.blocked_cycles::no_mshrs             0                       # number of cycles access was blocked
system.l2cache.blocked_cycles::no_targets            0                       # number of cycles access was blocked
system.l2cache.blocked::no_mshrs                    0                       # number of cycles access was blocked
system.l2cache.blocked::no_targets                  0                       # number of cycles access was blocked
system.l2cache.avg_blocked_cycles::no_mshrs          nan                       # average number of cycles each access was blocked
system.l2cache.avg_blocked_cycles::no_targets          nan                       # average number of cycles each access was blocked
system.l2cache.writebacks::.writebacks         352130                       # number of writebacks
system.l2cache.writebacks::total               352130                       # number of writebacks
system.l2cache.demand_mshr_misses::.cpu.inst        38558                       # number of demand (read+write) MSHR misses
system.l2cache.demand_mshr_misses::.cpu.data       755831                       # number of demand (read+write) MSHR misses
system.l2cache.demand_mshr_misses::total       794389                       # number of demand (read+write) MSHR misses
system.l2cache.overall_mshr_misses::.cpu.inst        38558                       # number of overall MSHR misses
system.l2cache.overall_mshr_misses::.cpu.data       755831                       # number of overall MSHR misses
system.l2cache.overall_mshr_misses::total       794389                       # number of overall MSHR misses
system.l2cache.demand_mshr_miss_latency::.cpu.inst   2940684000                       # number of demand (read+write) MSHR miss cycles
system.l2cache.demand_mshr_miss_latency::.cpu.data  59202070000                       # number of demand (read+write) MSHR miss cycles
system.l2cache.demand_mshr_miss_latency::total  62142754000                       # number of demand (read+write) MSHR miss cycles
system.l2cache.overall_mshr_miss_latency::.cpu.inst   2940684000                       # number of overall MSHR miss cycles
system.l2cache.overall_mshr_miss_latency::.cpu.data  59202070000                       # number of overall MSHR miss cycles
system.l2cache.overall_mshr_miss_latency::total  62142754000                       # number of overall MSHR miss cycles
system.l2cache.demand_mshr_miss_rate::.cpu.inst     0.692207                       # mshr miss rate for demand accesses
system.l2cache.demand_mshr_miss_rate::.cpu.data     0.251948                       # mshr miss rate for demand accesses
system.l2cache.demand_mshr_miss_rate::total     0.259974                       # mshr miss rate for demand accesses
system.l2cache.overall_mshr_miss_rate::.cpu.inst     0.692207                       # mshr miss rate for overall accesses
system.l2cache.overall_mshr_miss_rate::.cpu.data     0.251948                       # mshr miss rate for overall accesses
system.l2cache.overall_mshr_miss_rate::total     0.259974                       # mshr miss rate for overall accesses
system.l2cache.demand_avg_mshr_miss_latency::.cpu.inst 76266.507599                       # average overall mshr miss latency
system.l2cache.demand_avg_mshr_miss_latency::.cpu.data 78327.126037                       # average overall mshr miss latency
system.l2cache.demand_avg_mshr_miss_latency::total 78227.107878                       # average overall mshr miss latency
system.l2cache.overall_avg_mshr_miss_latency::.cpu.inst 76266.507599                       # average overall mshr miss latency
system.l2cache.overall_avg_mshr_miss_latency::.cpu.data 78327.126037                       # average overall mshr miss latency
system.l2cache.overall_avg_mshr_miss_latency::total 78227.107878                       # average overall mshr miss latency
system.l2cache.replacements                   1000430                       # number of replacements
system.l2cache.WritebackDirty_hits::.writebacks      2416666                       # number of WritebackDirty hits
system.l2cache.WritebackDirty_hits::total      2416666                       # number of WritebackDirty hits
system.l2cache.WritebackDirty_misses::.writebacks         2137                       # number of WritebackDirty misses
system.l2cache.WritebackDirty_misses::total         2137                       # number of WritebackDirty misses
system.l2cache.WritebackDirty_accesses::.writebacks      2418803                       # number of WritebackDirty accesses(hits+misses)
system.l2cache.WritebackDirty_accesses::total      2418803                       # number of WritebackDirty accesses(hits+misses)
system.l2cache.WritebackDirty_miss_rate::.writebacks     0.000883                       # miss rate for WritebackDirty accesses
system.l2cache.WritebackDirty_miss_rate::total     0.000883                       # miss rate for WritebackDirty accesses
system.l2cache.WritebackDirty_mshr_misses::.writebacks         2137                       # number of WritebackDirty MSHR misses
system.l2cache.WritebackDirty_mshr_misses::total         2137                       # number of WritebackDirty MSHR misses
system.l2cache.WritebackDirty_mshr_miss_rate::.writebacks     0.000883                       # mshr miss rate for WritebackDirty accesses
system.l2cache.WritebackDirty_mshr_miss_rate::total     0.000883                       # mshr miss rate for WritebackDirty accesses
system.l2cache.CleanEvict_mshr_misses::.writebacks       156444                       # number of CleanEvict MSHR misses
system.l2cache.CleanEvict_mshr_misses::total       156444                       # number of CleanEvict MSHR misses
system.l2cache.CleanEvict_mshr_miss_rate::.writebacks          inf                       # mshr miss rate for CleanEvict accesses
system.l2cache.CleanEvict_mshr_miss_rate::total          inf                       # mshr miss rate for CleanEvict accesses
system.l2cache.ReadExReq_hits::.cpu.data       931447                       # number of ReadExReq hits
system.l2cache.ReadExReq_hits::total           931447                       # number of ReadExReq hits
system.l2cache.ReadExReq_misses::.cpu.data       184217                       # number of ReadExReq misses
system.l2cache.ReadExReq_misses::total         184217                       # number of ReadExReq misses
system.l2cache.ReadExReq_miss_latency::.cpu.data  17887807000                       # number of ReadExReq miss cycles
system.l2cache.ReadExReq_miss_latency::total  17887807000                       # number of ReadExReq miss cycles
system.l2cache.ReadExReq_accesses::.cpu.data      1115664                       # number of ReadExReq accesses(hits+misses)
system.l2cache.ReadExReq_accesses::total      1115664                       # number of ReadExReq accesses(hits+misses)
system.l2cache.ReadExReq_miss_rate::.cpu.data     0.165119                       # miss rate for ReadExReq accesses
system.l2cache.ReadExReq_miss_rate::total     0.165119                       # miss rate for ReadExReq accesses
system.l2cache.ReadExReq_avg_miss_latency::.cpu.data 97101.825564                       # average ReadExReq miss latency
system.l2cache.ReadExReq_avg_miss_latency::total 97101.825564                       # average ReadExReq miss latency
system.l2cache.ReadExReq_mshr_misses::.cpu.data       184217                       # number of ReadExReq MSHR misses
system.l2cache.ReadExReq_mshr_misses::total       184217                       # number of ReadExReq MSHR misses
system.l2cache.ReadExReq_mshr_miss_latency::.cpu.data  14203467000                       # number of ReadExReq MSHR miss cycles
system.l2cache.ReadExReq_mshr_miss_latency::total  14203467000                       # number of ReadExReq MSHR miss cycles
system.l2cache.ReadExReq_mshr_miss_rate::.cpu.data     0.165119                       # mshr miss rate for ReadExReq accesses
system.l2cache.ReadExReq_mshr_miss_rate::total     0.165119                       # mshr miss rate for ReadExReq accesses
system.l2cache.ReadExReq_avg_mshr_miss_latency::.cpu.data 77101.825564                       # average ReadExReq mshr miss latency
system.l2cache.ReadExReq_avg_mshr_miss_latency::total 77101.825564                       # average ReadExReq mshr miss latency
system.l2cache.ReadSharedReq_hits::.cpu.inst        17145                       # number of ReadSharedReq hits
system.l2cache.ReadSharedReq_hits::.cpu.data      1312672                       # number of ReadSharedReq hits
system.l2cache.ReadSharedReq_hits::total      1329817                       # number of ReadSharedReq hits
system.l2cache.ReadSharedReq_misses::.cpu.inst        38558                       # number of ReadSharedReq misses
system.l2cache.ReadSharedReq_misses::.cpu.data       571614                       # number of ReadSharedReq misses
system.l2cache.ReadSharedReq_misses::total       610172                       # number of ReadSharedReq misses
system.l2cache.ReadSharedReq_miss_latency::.cpu.inst   3711844000                       # number of ReadSharedReq miss cycles
system.l2cache.ReadSharedReq_miss_latency::.cpu.data  56430883000                       # number of ReadSharedReq miss cycles
system.l2cache.ReadSharedReq_miss_latency::total  60142727000                       # number of ReadSharedReq miss cycles
system.l2cache.ReadSharedReq_accesses::.cpu.inst        55703                       # number of ReadSharedReq accesses(hits+misses)
system.l2cache.ReadSharedReq_accesses::.cpu.data      1884286                       # number of ReadSharedReq accesses(hits+misses)
system.l2cache.ReadSharedReq_accesses::total      1939989                       # number of ReadSharedReq accesses(hits+misses)
system.l2cache.ReadSharedReq_miss_rate::.cpu.inst     0.692207                       # miss rate for ReadSharedReq accesses
system.l2cache.ReadSharedReq_miss_rate::.cpu.data     0.303358                       # miss rate for ReadSharedReq accesses
system.l2cache.ReadSharedReq_miss_rate::total     0.314523                       # miss rate for ReadSharedReq accesses
system.l2cache.ReadSharedReq_avg_miss_latency::.cpu.inst 96266.507599                       # average ReadSharedReq miss latency
system.l2cache.ReadSharedReq_avg_miss_latency::.cpu.data 98722.009958                       # average ReadSharedReq miss latency
system.l2cache.ReadSharedReq_avg_miss_latency::total 98566.841809                       # average ReadSharedReq miss latency
system.l2cache.ReadSharedReq_mshr_misses::.cpu.inst        38558                       # number of ReadSharedReq MSHR misses
system.l2cache.ReadSharedReq_mshr_misses::.cpu.data       571614                       # number of ReadSharedReq MSHR misses
system.l2cache.ReadSharedReq_mshr_misses::total       610172                       # number of ReadSharedReq MSHR misses
system.l2cache.ReadSharedReq_mshr_miss_latency::.cpu.inst   2940684000                       # number of ReadSharedReq MSHR miss cycles
system.l2cache.ReadSharedReq_mshr_miss_latency::.cpu.data  44998603000                       # number of ReadSharedReq MSHR miss cycles
system.l2cache.ReadSharedReq_mshr_miss_latency::total  47939287000                       # number of ReadSharedReq MSHR miss cycles
system.l2cache.ReadSharedReq_mshr_miss_rate::.cpu.inst     0.692207                       # mshr miss rate for ReadSharedReq accesses
system.l2cache.ReadSharedReq_mshr_miss_rate::.cpu.data     0.303358                       # mshr miss rate for ReadSharedReq accesses
system.l2cache.ReadSharedReq_mshr_miss_rate::total     0.314523                       # mshr miss rate for ReadSharedReq accesses
system.l2cache.ReadSharedReq_avg_mshr_miss_latency::.cpu.inst 76266.507599                       # average ReadSharedReq mshr miss latency
system.l2cache.ReadSharedReq_avg_mshr_miss_latency::.cpu.data 78722.009958                       # average ReadSharedReq mshr miss latency
system.l2cache.ReadSharedReq_avg_mshr_miss_latency::total 78566.841809                       # average ReadSharedReq mshr miss latency
system.l2cache.power_state.pwrStateResidencyTicks::UNDEFINED 794478790000                       # Cumulative time (in ticks) in various power states
system.l2cache.replacement_policy.totalBypasses         9873                       # Total number of cache bypasses
system.l2cache.replacement_policy.effectiveBypasses         2652                       # Bypasses that correctly skipped non-reused blocks
system.l2cache.replacement_policy.ineffectiveBypasses         1689                       # Bypasses that incorrectly skipped requested blocks
system.l2cache.replacement_policy.virtualEffectiveBypasses        20792                       # Virtual bypasses correctly predicting non-reused blocks
system.l2cache.replacement_policy.virtualIneffectiveBypasses        18661                       # Virtual bypasses incorrectly predicting requested blocks
system.l2cache.tags.tagsinuse             2047.139200                       # Cycle average of tags in use
system.l2cache.tags.total_refs                5943709                       # Total number of references to valid blocks.
system.l2cache.tags.sampled_refs              1002478                       # Sample count of references to valid blocks.
system.l2cache.tags.avg_refs                 5.929017                       # Average number of references to valid blocks.
system.l2cache.tags.warmup_cycle                86000                       # Cycle when the warmup percentage was hit.
system.l2cache.tags.occ_blocks::.writebacks   369.621753                       # Average occupied blocks per requestor
system.l2cache.tags.occ_blocks::.cpu.inst    56.549016                       # Average occupied blocks per requestor
system.l2cache.tags.occ_blocks::.cpu.data  1620.968432                       # Average occupied blocks per requestor
system.l2cache.tags.occ_percent::.writebacks     0.180479                       # Average percentage of cache occupancy
system.l2cache.tags.occ_percent::.cpu.inst     0.027612                       # Average percentage of cache occupancy
system.l2cache.tags.occ_percent::.cpu.data     0.791488                       # Average percentage of cache occupancy
system.l2cache.tags.occ_percent::total       0.999580                       # Average percentage of cache occupancy
system.l2cache.tags.occ_task_id_blocks::1024         2048                       # Occupied blocks per task id
system.l2cache.tags.age_task_id_blocks_1024::0           63                       # Occupied blocks per task id
system.l2cache.tags.age_task_id_blocks_1024::1          148                       # Occupied blocks per task id
system.l2cache.tags.age_task_id_blocks_1024::2          721                       # Occupied blocks per task id
system.l2cache.tags.age_task_id_blocks_1024::3         1116                       # Occupied blocks per task id
system.l2cache.tags.occ_task_id_percent::1024            1                       # Percentage of cache occupancy per task id
system.l2cache.tags.tag_accesses             49882686                       # Number of tag accesses
system.l2cache.tags.data_accesses            49882686                       # Number of data accesses
system.l2cache.tags.power_state.pwrStateResidencyTicks::UNDEFINED 794478790000                       # Cumulative time (in ticks) in various power states
system.mem_ctrl.avgPriority_.writebacks::samples    354207.00                       # Average QoS priority value for accepted requests
system.mem_ctrl.avgPriority_.cpu.inst::samples     38558.00                       # Average QoS priority value for accepted requests
system.mem_ctrl.avgPriority_.cpu.data::samples    716863.00                       # Average QoS priority value for accepted requests
system.mem_ctrl.priorityMinLatency       0.000000018750                       # per QoS priority minimum request to response latency (s)
system.mem_ctrl.priorityMaxLatency       0.008717926500                       # per QoS priority maximum request to response latency (s)
system.mem_ctrl.numReadWriteTurnArounds         20167                       # Number of turnarounds from READ to WRITE
system.mem_ctrl.numWriteReadTurnArounds         20167                       # Number of turnarounds from WRITE to READ
system.mem_ctrl.numStayReadState              2059988                       # Number of times bus staying in READ state
system.mem_ctrl.numStayWriteState              334418                       # Number of times bus staying in WRITE state
system.mem_ctrl.readReqs                       794389                       # Number of read requests accepted
system.mem_ctrl.writeReqs                      354267                       # Number of write requests accepted
system.mem_ctrl.readBursts                     794389                       # Number of controller read bursts, including those serviced by the write queue
system.mem_ctrl.writeBursts                    354267                       # Number of controller write bursts, including those merged in the write queue
system.mem_ctrl.servicedByWrQ                   38968                       # Number of controller read bursts serviced by the write queue
system.mem_ctrl.mergedWrBursts                     60                       # Number of controller write bursts merged with an existing one
system.mem_ctrl.neitherReadNorWriteReqs             0                       # Number of requests that are neither read nor write
system.mem_ctrl.avgRdQLen                        1.00                       # Average read queue length when enqueuing
system.mem_ctrl.avgWrQLen                       24.60                       # Average write queue length when enqueuing
system.mem_ctrl.numRdRetry                          0                       # Number of times read queue was full causing retry
system.mem_ctrl.numWrRetry                          0                       # Number of times write queue was full causing retry
system.mem_ctrl.readPktSize::0                      0                       # Read request sizes (log2)
system.mem_ctrl.readPktSize::1                      0                       # Read request sizes (log2)
system.mem_ctrl.readPktSize::2                      0                       # Read request sizes (log2)
system.mem_ctrl.readPktSize::3                      0                       # Read request sizes (log2)
system.mem_ctrl.readPktSize::4                      0                       # Read request sizes (log2)
system.mem_ctrl.readPktSize::5                      0                       # Read request sizes (log2)
system.mem_ctrl.readPktSize::6                 794389                       # Read request sizes (log2)
system.mem_ctrl.writePktSize::0                     0                       # Write request sizes (log2)
system.mem_ctrl.writePktSize::1                     0                       # Write request sizes (log2)
system.mem_ctrl.writePktSize::2                     0                       # Write request sizes (log2)
system.mem_ctrl.writePktSize::3                     0                       # Write request sizes (log2)
system.mem_ctrl.writePktSize::4                     0                       # Write request sizes (log2)
system.mem_ctrl.writePktSize::5                     0                       # Write request sizes (log2)
system.mem_ctrl.writePktSize::6                354267                       # Write request sizes (log2)
system.mem_ctrl.rdQLenPdf::0                   755419                       # What read queue length does an incoming req see
system.mem_ctrl.rdQLenPdf::1                        2                       # What read queue length does an incoming req see
system.mem_ctrl.rdQLenPdf::2                        0                       # What read queue length does an incoming req see
system.mem_ctrl.rdQLenPdf::3                        0                       # What read queue length does an incoming req see
system.mem_ctrl.rdQLenPdf::4                        0                       # What read queue length does an incoming req see
system.mem_ctrl.rdQLenPdf::5                        0                       # What read queue length does an incoming req see
system.mem_ctrl.rdQLenPdf::6                        0                       # What read queue length does an incoming req see
system.mem_ctrl.rdQLenPdf::7                        0                       # What read queue length does an incoming req see
system.mem_ctrl.rdQLenPdf::8                        0                       # What read queue length does an incoming req see
system.mem_ctrl.rdQLenPdf::9                        0                       # What read queue length does an incoming req see
system.mem_ctrl.rdQLenPdf::10                       0                       # What read queue length does an incoming req see
system.mem_ctrl.rdQLenPdf::11                       0                       # What read queue length does an incoming req see
system.mem_ctrl.rdQLenPdf::12                       0                       # What read queue length does an incoming req see
system.mem_ctrl.rdQLenPdf::13                       0                       # What read queue length does an incoming req see
system.mem_ctrl.rdQLenPdf::14                       0                       # What read queue length does an incoming req see
system.mem_ctrl.rdQLenPdf::15                       0                       # What read queue length does an incoming req see
system.mem_ctrl.rdQLenPdf::16                       0                       # What read queue length does an incoming req see
system.mem_ctrl.rdQLenPdf::17                       0                       # What read queue length does an incoming req see
system.mem_ctrl.rdQLenPdf::18                       0                       # What read queue length does an incoming req see
system.mem_ctrl.rdQLenPdf::19                       0                       # What read queue length does an incoming req see
system.mem_ctrl.rdQLenPdf::20                       0                       # What read queue length does an incoming req see
system.mem_ctrl.rdQLenPdf::21                       0                       # What read queue length does an incoming req see
system.mem_ctrl.rdQLenPdf::22                       0                       # What read queue length does an incoming req see
system.mem_ctrl.rdQLenPdf::23                       0                       # What read queue length does an incoming req see
system.mem_ctrl.rdQLenPdf::24                       0                       # What read queue length does an incoming req see
system.mem_ctrl.rdQLenPdf::25                       0                       # What read queue length does an incoming req see
system.mem_ctrl.rdQLenPdf::26                       0                       # What read queue length does an incoming req see
system.mem_ctrl.rdQLenPdf::27                       0                       # What read queue length does an incoming req see
system.mem_ctrl.rdQLenPdf::28                       0                       # What read queue length does an incoming req see
system.mem_ctrl.rdQLenPdf::29                       0                       # What read queue length does an incoming req see
system.mem_ctrl.rdQLenPdf::30                       0                       # What read queue length does an incoming req see
system.mem_ctrl.rdQLenPdf::31                       0                       # What read queue length does an incoming req see
system.mem_ctrl.wrQLenPdf::0                        1                       # What write queue length does an incoming req see
system.mem_ctrl.wrQLenPdf::1                        1                       # What write queue length does an incoming req see
system.mem_ctrl.wrQLenPdf::2                        1                       # What write queue length does an incoming req see
system.mem_ctrl.wrQLenPdf::3                        1                       # What write queue length does an incoming req see
system.mem_ctrl.wrQLenPdf::4                        1                       # What write queue length does an incoming req see
system.mem_ctrl.wrQLenPdf::5                        1                       # What write queue length does an incoming req see
system.mem_ctrl.wrQLenPdf::6                        1                       # What write queue length does an incoming req see
system.mem_ctrl.wrQLenPdf::7                        1                       # What write queue length does an incoming req see
system.mem_ctrl.wrQLenPdf::8                        1                       # What write queue length does an incoming req see
system.mem_ctrl.wrQLenPdf::9                        1                       # What write queue length does an incoming req see
system.mem_ctrl.wrQLenPdf::10                       1                       # What write queue length does an incoming req see
system.mem_ctrl.wrQLenPdf::11                       1                       # What write queue length does an incoming req see
system.mem_ctrl.wrQLenPdf::12                       1                       # What write queue length does an incoming req see
system.mem_ctrl.wrQLenPdf::13                       1                       # What write queue length does an incoming req see
system.mem_ctrl.wrQLenPdf::14                       1                       # What write queue length does an incoming req see
system.mem_ctrl.wrQLenPdf::15                   14766                       # What write queue length does an incoming req see
system.mem_ctrl.wrQLenPdf::16                   15663                       # What write queue length does an incoming req see
system.mem_ctrl.wrQLenPdf::17                   19893                       # What write queue length does an incoming req see
system.mem_ctrl.wrQLenPdf::18                   20409                       # What write queue length does an incoming req see
system.mem_ctrl.wrQLenPdf::19                   20419                       # What write queue length does an incoming req see
system.mem_ctrl.wrQLenPdf::20                   20285                       # What write queue length does an incoming req see
system.mem_ctrl.wrQLenPdf::21                   20764                       # What write queue length does an incoming req see
system.mem_ctrl.wrQLenPdf::22                   20229                       # What write queue length does an incoming req see
system.mem_ctrl.wrQLenPdf::23                   20197                       # What write queue length does an incoming req see
system.mem_ctrl.wrQLenPdf::24                   20177                       # What write queue length does an incoming req see
system.mem_ctrl.wrQLenPdf::25                   20184                       # What write queue length does an incoming req see
system.mem_ctrl.wrQLenPdf::26                   20172                       # What write queue length does an incoming req see
system.mem_ctrl.wrQLenPdf::27                   20168                       # What write queue length does an incoming req see
system.mem_ctrl.wrQLenPdf::28                   20169                       # What write queue length does an incoming req see
system.mem_ctrl.wrQLenPdf::29                   20168                       # What write queue length does an incoming req see
system.mem_ctrl.wrQLenPdf::30                   20169                       # What write queue length does an incoming req see
system.mem_ctrl.wrQLenPdf::31                   20167                       # What write queue length does an incoming req see
system.mem_ctrl.wrQLenPdf::32                   20167                       # What write queue length does an incoming req see
system.mem_ctrl.wrQLenPdf::33                      21                       # What write queue length does an incoming req see
system.mem_ctrl.wrQLenPdf::34                       4                       # What write queue length does an incoming req see
system.mem_ctrl.wrQLenPdf::35                       1                       # What write queue length does an incoming req see
system.mem_ctrl.wrQLenPdf::36                       0                       # What write queue length does an incoming req see
system.mem_ctrl.wrQLenPdf::37                       0                       # What write queue length does an incoming req see
system.mem_ctrl.wrQLenPdf::38                       0                       # What write queue length does an incoming req see
system.mem_ctrl.wrQLenPdf::39                       0                       # What write queue length does an incoming req see
system.mem_ctrl.wrQLenPdf::40                       0                       # What write queue length does an incoming req see
system.mem_ctrl.wrQLenPdf::41                       0                       # What write queue length does an incoming req see
system.mem_ctrl.wrQLenPdf::42                       0                       # What write queue length does an incoming req see
system.mem_ctrl.wrQLenPdf::43                       0                       # What write queue length does an incoming req see
system.mem_ctrl.wrQLenPdf::44                       0                       # What write queue length does an incoming req see
system.mem_ctrl.wrQLenPdf::45                       0                       # What write queue length does an incoming req see
system.mem_ctrl.wrQLenPdf::46                       0                       # What write queue length does an incoming req see
system.mem_ctrl.wrQLenPdf::47                       0                       # What write queue length does an incoming req see
system.mem_ctrl.wrQLenPdf::48                       0                       # What write queue length does an incoming req see
system.mem_ctrl.wrQLenPdf::49                       0                       # What write queue length does an incoming req see
system.mem_ctrl.wrQLenPdf::50                       0                       # What write queue length does an incoming req see
system.mem_ctrl.wrQLenPdf::51                       0                       # What write queue length does an incoming req see
system.mem_ctrl.wrQLenPdf::52                       0                       # What write queue length does an incoming req see
system.mem_ctrl.wrQLenPdf::53                       0                       # What write queue length does an incoming req see
system.mem_ctrl.wrQLenPdf::54                       0                       # What write queue length does an incoming req see
system.mem_ctrl.wrQLenPdf::55                       0                       # What write queue length does an incoming req see
system.mem_ctrl.wrQLenPdf::56                       0                       # What write queue length does an incoming req see
system.mem_ctrl.wrQLenPdf::57                       0                       # What write queue length does an incoming req see
system.mem_ctrl.wrQLenPdf::58                       0                       # What write queue length does an incoming req see
system.mem_ctrl.wrQLenPdf::59                       0                       # What write queue length does an incoming req see
system.mem_ctrl.wrQLenPdf::60                       0                       # What write queue length does an incoming req see
system.mem_ctrl.wrQLenPdf::61                       0                       # What write queue length does an incoming req see
system.mem_ctrl.wrQLenPdf::62                       0                       # What write queue length does an incoming req see
system.mem_ctrl.wrQLenPdf::63                       0                       # What write queue length does an incoming req see
system.mem_ctrl.rdPerTurnAround::samples        20167                       # Reads before turning the bus around for writes
system.mem_ctrl.rdPerTurnAround::mean       37.456786                       # Reads before turning the bus around for writes
system.mem_ctrl.rdPerTurnAround::gmean      31.248735                       # Reads before turning the bus around for writes
system.mem_ctrl.rdPerTurnAround::stdev      39.542077                       # Reads before turning the bus around for writes
system.mem_ctrl.rdPerTurnAround::0-127          19939     98.87%     98.87% # Reads before turning the bus around for writes
system.mem_ctrl.rdPerTurnAround::128-255          124      0.61%     99.48% # Reads before turning the bus around for writes
system.mem_ctrl.rdPerTurnAround::256-383           45      0.22%     99.71% # Reads before turning the bus around for writes
system.mem_ctrl.rdPerTurnAround::384-511           45      0.22%     99.93% # Reads before turning the bus around for writes
system.mem_ctrl.rdPerTurnAround::512-639           13      0.06%    100.00% # Reads before turning the bus around for writes
system.mem_ctrl.rdPerTurnAround::2816-2943            1      0.00%    100.00% # Reads before turning the bus around for writes
system.mem_ctrl.rdPerTurnAround::total          20167                       # Reads before turning the bus around for writes
system.mem_ctrl.wrPerTurnAround::samples        20167                       # Writes before turning the bus around for reads
system.mem_ctrl.wrPerTurnAround::mean       17.562652                       # Writes before turning the bus around for reads
system.mem_ctrl.wrPerTurnAround::gmean      17.538888                       # Writes before turning the bus around for reads
system.mem_ctrl.wrPerTurnAround::stdev       0.899011                       # Writes before turning the bus around for reads
system.mem_ctrl.wrPerTurnAround::16              4554     22.58%     22.58% # Writes before turning the bus around for reads
system.mem_ctrl.wrPerTurnAround::17               799      3.96%     26.54% # Writes before turning the bus around for reads
system.mem_ctrl.wrPerTurnAround::18             13752     68.19%     94.73% # Writes before turning the bus around for reads
system.mem_ctrl.wrPerTurnAround::19              1039      5.15%     99.89% # Writes before turning the bus around for reads
system.mem_ctrl.wrPerTurnAround::20                21      0.10%     99.99% # Writes before turning the bus around for reads
system.mem_ctrl.wrPerTurnAround::21                 2      0.01%    100.00% # Writes before turning the bus around for reads
system.mem_ctrl.wrPerTurnAround::total          20167                       # Writes before turning the bus around for reads
system.mem_ctrl.bytesReadWrQ                  2493952                       # Total number of bytes read from write queue
system.mem_ctrl.bytesReadSys                 50840896                       # Total read bytes from the system interface side
system.mem_ctrl.bytesWrittenSys              22673088                       # Total written bytes from the system interface side
system.mem_ctrl.avgRdBWSys                      63.99                       # Average system read bandwidth in MiByte/s
system.mem_ctrl.avgWrBWSys                      28.54                       # Average system write bandwidth in MiByte/s
[...]
system.mem_ctrl.requestorReadRate::.cpu.data 57747585.684446029365                       # Per-requestor bytes read from memory rate (Bytes/sec)
system.mem_ctrl.requestorWriteRate::.writebacks 28531792.522743117064                       # Per-requestor bytes write to memory rate (Bytes/sec)
system.mem_ctrl.requestorReadAccesses::.cpu.inst        38558                       # Per-requestor read serviced memory accesses
system.mem_ctrl.requestorReadAccesses::.cpu.data       755831                       # Per-requestor read serviced memory accesses
system.mem_ctrl.requestorWriteAccesses::.writebacks       354267                       # Per-requestor write serviced memory accesses
system.mem_ctrl.requestorReadTotalLat::.cpu.inst    963319000                       # Per-requestor read total memory access latency
system.mem_ctrl.requestorReadTotalLat::.cpu.data  20796366250                       # Per-requestor read total memory access latency
system.mem_ctrl.requestorWriteTotalLat::.writebacks 18743209696250                       # Per-requestor write total memory access latency
system.mem_ctrl.requestorReadAvgLat::.cpu.inst     24983.64                       # Per-requestor read average memory access latency
system.mem_ctrl.requestorReadAvgLat::.cpu.data     27514.57                       # Per-requestor read average memory access latency
system.mem_ctrl.requestorWriteAvgLat::.writebacks  52907015.60                       # Per-requestor write average memory access latency
system.mem_ctrl.dram.bytes_read::.cpu.inst      2467712                       # Number of bytes read from this memory
system.mem_ctrl.dram.bytes_read::.cpu.data     48373184                       # Number of bytes read from this memory
system.mem_ctrl.dram.bytes_read::total       50840896                       # Number of bytes read from this memory
system.mem_ctrl.dram.bytes_inst_read::.cpu.inst      2467712                       # Number of instructions bytes read from this memory
system.mem_ctrl.dram.bytes_inst_read::total      2467712                       # Number of instructions bytes read from this memory
system.mem_ctrl.dram.bytes_written::.writebacks     22673088                       # Number of bytes written to this memory
system.mem_ctrl.dram.bytes_written::total     22673088                       # Number of bytes written to this memory
system.mem_ctrl.dram.num_reads::.cpu.inst        38558                       # Number of read requests responded to by this memory
system.mem_ctrl.dram.num_reads::.cpu.data       755831                       # Number of read requests responded to by this memory
system.mem_ctrl.dram.num_reads::total          794389                       # Number of read requests responded to by this memory
system.mem_ctrl.dram.num_writes::.writebacks       354267                       # Number of write requests responded to by this memory
system.mem_ctrl.dram.num_writes::total         354267                       # Number of write requests responded to by this memory
system.mem_ctrl.dram.bw_read::.cpu.inst       3106077                       # Total read bandwidth from this memory (bytes/s)
system.mem_ctrl.dram.bw_read::.cpu.data      60886690                       # Total read bandwidth from this memory (bytes/s)
system.mem_ctrl.dram.bw_read::total          63992767                       # Total read bandwidth from this memory (bytes/s)
system.mem_ctrl.dram.bw_inst_read::.cpu.inst      3106077                       # Instruction read bandwidth from this memory (bytes/s)
system.mem_ctrl.dram.bw_inst_read::total      3106077                       # Instruction read bandwidth from this memory (bytes/s)
system.mem_ctrl.dram.bw_write::.writebacks     28538318                       # Write bandwidth from this memory (bytes/s)
system.mem_ctrl.dram.bw_write::total         28538318                       # Write bandwidth from this memory (bytes/s)
system.mem_ctrl.dram.bw_total::.writebacks     28538318                       # Total bandwidth to/from this memory (bytes/s)
system.mem_ctrl.dram.bw_total::.cpu.inst      3106077                       # Total bandwidth to/from this memory (bytes/s)
system.mem_ctrl.dram.bw_total::.cpu.data     60886690                       # Total bandwidth to/from this memory (bytes/s)
system.mem_ctrl.dram.bw_total::total         92531084                       # Total bandwidth to/from this memory (bytes/s)
system.mem_ctrl.dram.readBursts                755421                       # Number of DRAM read bursts
system.mem_ctrl.dram.writeBursts               354186                       # Number of DRAM write bursts
system.mem_ctrl.dram.perBankRdBursts::0         33677                       # Per bank write bursts
system.mem_ctrl.dram.perBankRdBursts::1         47420                       # Per bank write bursts
system.mem_ctrl.dram.perBankRdBursts::2         40411                       # Per bank write bursts
system.mem_ctrl.dram.perBankRdBursts::3         42135                       # Per bank write bursts
system.mem_ctrl.dram.perBankRdBursts::4         27701                       # Per bank write bursts
system.mem_ctrl.dram.perBankRdBursts::5         27379                       # Per bank write bursts
system.mem_ctrl.dram.perBankRdBursts::6         33969                       # Per bank write bursts
system.mem_ctrl.dram.perBankRdBursts::7         48369                       # Per bank write bursts
system.mem_ctrl.dram.perBankRdBursts::8         31192                       # Per bank write bursts
system.mem_ctrl.dram.perBankRdBursts::9         71827                       # Per bank write bursts
system.mem_ctrl.dram.perBankRdBursts::10        51452                       # Per bank write bursts
system.mem_ctrl.dram.perBankRdBursts::11        78772                       # Per bank write bursts
system.mem_ctrl.dram.perBankRdBursts::12        64695                       # Per bank write bursts
system.mem_ctrl.dram.perBankRdBursts::13        64208                       # Per bank write bursts
system.mem_ctrl.dram.perBankRdBursts::14        42871                       # Per bank write bursts
system.mem_ctrl.dram.perBankRdBursts::15        49343                       # Per bank write bursts
system.mem_ctrl.dram.perBankWrBursts::0          7525                       # Per bank write bursts
system.mem_ctrl.dram.perBankWrBursts::1         21305                       # Per bank write bursts
system.mem_ctrl.dram.perBankWrBursts::2         11226                       # Per bank write bursts
system.mem_ctrl.dram.perBankWrBursts::3         16849                       # Per bank write bursts
system.mem_ctrl.dram.perBankWrBursts::4          3906                       # Per bank write bursts
system.mem_ctrl.dram.perBankWrBursts::5         14484                       # Per bank write bursts
system.mem_ctrl.dram.perBankWrBursts::6         20505                       # Per bank write bursts
system.mem_ctrl.dram.perBankWrBursts::7         37129                       # Per bank write bursts
system.mem_ctrl.dram.perBankWrBursts::8         18766                       # Per bank write bursts
system.mem_ctrl.dram.perBankWrBursts::9         33220                       # Per bank write bursts
system.mem_ctrl.dram.perBankWrBursts::10        28419                       # Per bank write bursts
system.mem_ctrl.dram.perBankWrBursts::11        38081                       # Per bank write bursts
system.mem_ctrl.dram.perBankWrBursts::12        28532                       # Per bank write bursts
system.mem_ctrl.dram.perBankWrBursts::13        37724                       # Per bank write bursts
system.mem_ctrl.dram.perBankWrBursts::14        20965                       # Per bank write bursts
system.mem_ctrl.dram.perBankWrBursts::15        15550                       # Per bank write bursts
system.mem_ctrl.dram.totQLat               7595541500                       # Total ticks spent queuing
system.mem_ctrl.dram.totBusLat             3777105000                       # Total ticks spent in databus transfers
system.mem_ctrl.dram.totMemAccLat         21759685250                       # Total ticks spent from burst creation until serviced by the DRAM
system.mem_ctrl.dram.avgQLat                 10054.71                       # Average queueing delay per DRAM burst
system.mem_ctrl.dram.avgBusLat                5000.00                       # Average bus latency per DRAM burst
system.mem_ctrl.dram.avgMemAccLat            28804.71                       # Average memory access latency per DRAM burst
system.mem_ctrl.dram.readRowHits               502885                       # Number of row buffer hits during reads
system.mem_ctrl.dram.writeRowHits              286971                       # Number of row buffer hits during writes
system.mem_ctrl.dram.readRowHitRate             66.57                       # Row buffer hit rate for reads
system.mem_ctrl.dram.writeRowHitRate            81.02                       # Row buffer hit rate for writes
system.mem_ctrl.dram.bytesPerActivate::samples       319748                       # Bytes accessed per row activation
system.mem_ctrl.dram.bytesPerActivate::mean   222.095100                       # Bytes accessed per row activation
system.mem_ctrl.dram.bytesPerActivate::gmean   148.694888                       # Bytes accessed per row activation
system.mem_ctrl.dram.bytesPerActivate::stdev   226.935981                       # Bytes accessed per row activation
system.mem_ctrl.dram.bytesPerActivate::0-127       129265     40.43%     40.43% # Bytes accessed per row activation
system.mem_ctrl.dram.bytesPerActivate::128-255        90648     28.35%     68.78% # Bytes accessed per row activation
system.mem_ctrl.dram.bytesPerActivate::256-383        35449     11.09%     79.86% # Bytes accessed per row activation
system.mem_ctrl.dram.bytesPerActivate::384-511        25837      8.08%     87.94% # Bytes accessed per row activation
system.mem_ctrl.dram.bytesPerActivate::512-639        13695      4.28%     92.23% # Bytes accessed per row activation
system.mem_ctrl.dram.bytesPerActivate::640-767         8065      2.52%     94.75% # Bytes accessed per row activation
system.mem_ctrl.dram.bytesPerActivate::768-895         4791      1.50%     96.25% # Bytes accessed per row activation
system.mem_ctrl.dram.bytesPerActivate::896-1023         5204      1.63%     97.88% # Bytes accessed per row activation
system.mem_ctrl.dram.bytesPerActivate::1024-1151         6794      2.12%    100.00% # Bytes accessed per row activation
system.mem_ctrl.dram.bytesPerActivate::total       319748                       # Bytes accessed per row activation
system.mem_ctrl.dram.bytesRead               48346944                       # Total number of bytes read from DRAM
system.mem_ctrl.dram.bytesWritten            22667904                       # Total number of bytes written to DRAM
system.mem_ctrl.dram.avgRdBW                60.853662                       # Average DRAM read bandwidth in MiBytes/s
system.mem_ctrl.dram.avgWrBW                28.531793                       # Average DRAM write bandwidth in MiBytes/s
system.mem_ctrl.dram.peakBW                  12800.00                       # Theoretical peak bandwidth in MiByte/s
system.mem_ctrl.dram.busUtil                     0.70                       # Data bus utilization in percentage
system.mem_ctrl.dram.busUtilRead                 0.48                       # Data bus utilization in percentage for reads
system.mem_ctrl.dram.busUtilWrite                0.22                       # Data bus utilization in percentage for writes
system.mem_ctrl.dram.pageHitRate                71.18                       # Row buffer hit rate, read and write combined
system.mem_ctrl.dram.power_state.pwrStateResidencyTicks::UNDEFINED 794478790000                       # Cumulative time (in ticks) in various power states
system.mem_ctrl.dram.rank0.actEnergy        727180440                       # Energy for activate commands per rank (pJ)
system.mem_ctrl.dram.rank0.preEnergy        386501775                       # Energy for precharge commands per rank (pJ)
system.mem_ctrl.dram.rank0.readEnergy      2149575540                       # Energy for read commands per rank (pJ)
system.mem_ctrl.dram.rank0.writeEnergy      693889380                       # Energy for write commands per rank (pJ)
system.mem_ctrl.dram.rank0.refreshEnergy 62715407040.000008                       # Energy for refresh commands per rank (pJ)
system.mem_ctrl.dram.rank0.actBackEnergy 145232528700                       # Energy for active background per rank (pJ)
system.mem_ctrl.dram.rank0.preBackEnergy 182778778560                       # Energy for precharge background per rank (pJ)
system.mem_ctrl.dram.rank0.actPowerDownEnergy            0                       # Energy for active power-down per rank (pJ)
system.mem_ctrl.dram.rank0.prePowerDownEnergy            0                       # Energy for precharge power-down per rank (pJ)
system.mem_ctrl.dram.rank0.selfRefreshEnergy            0                       # Energy for self refresh per rank (pJ)
system.mem_ctrl.dram.rank0.totalEnergy   394683861435                       # Total energy per rank (pJ)
system.mem_ctrl.dram.rank0.averagePower    496.783384                       # Core power per rank (mW)
system.mem_ctrl.dram.rank0.totalIdleTime            0                       # Total Idle time Per DRAM Rank
system.mem_ctrl.dram.rank0.pwrStateTime::IDLE 473795161000                       # Time in different power states
system.mem_ctrl.dram.rank0.pwrStateTime::REF  26529360000                       # Time in different power states
system.mem_ctrl.dram.rank0.pwrStateTime::SREF            0                       # Time in different power states
system.mem_ctrl.dram.rank0.pwrStateTime::PRE_PDN            0                       # Time in different power states
system.mem_ctrl.dram.rank0.pwrStateTime::ACT 294154269000                       # Time in different power states
system.mem_ctrl.dram.rank0.pwrStateTime::ACT_PDN            0                       # Time in different power states
system.mem_ctrl.dram.rank1.actEnergy       1555841700                       # Energy for activate commands per rank (pJ)
system.mem_ctrl.dram.rank1.preEnergy        826941885                       # Energy for precharge commands per rank (pJ)
system.mem_ctrl.dram.rank1.readEnergy      3244130400                       # Energy for read commands per rank (pJ)
system.mem_ctrl.dram.rank1.writeEnergy     1154961540                       # Energy for write commands per rank (pJ)
system.mem_ctrl.dram.rank1.refreshEnergy 62715407040.000008                       # Energy for refresh commands per rank (pJ)
system.mem_ctrl.dram.rank1.actBackEnergy 200163843090                       # Energy for active background per rank (pJ)
system.mem_ctrl.dram.rank1.preBackEnergy 136520829600                       # Energy for precharge background per rank (pJ)
system.mem_ctrl.dram.rank1.actPowerDownEnergy            0                       # Energy for active power-down per rank (pJ)
system.mem_ctrl.dram.rank1.prePowerDownEnergy            0                       # Energy for precharge power-down per rank (pJ)
system.mem_ctrl.dram.rank1.selfRefreshEnergy            0                       # Energy for self refresh per rank (pJ)
system.mem_ctrl.dram.rank1.totalEnergy   406181955255                       # Total energy per rank (pJ)
system.mem_ctrl.dram.rank1.averagePower    511.255883                       # Core power per rank (mW)
system.mem_ctrl.dram.rank1.totalIdleTime            0                       # Total Idle time Per DRAM Rank
system.mem_ctrl.dram.rank1.pwrStateTime::IDLE 352961996750                       # Time in different power states
system.mem_ctrl.dram.rank1.pwrStateTime::REF  26529360000                       # Time in different power states
system.mem_ctrl.dram.rank1.pwrStateTime::SREF            0                       # Time in different power states
system.mem_ctrl.dram.rank1.pwrStateTime::PRE_PDN            0                       # Time in different power states
system.mem_ctrl.dram.rank1.pwrStateTime::ACT 414987433250                       # Time in different power states
system.mem_ctrl.dram.rank1.pwrStateTime::ACT_PDN            0                       # Time in different power states
system.mem_ctrl.power_state.pwrStateResidencyTicks::UNDEFINED 794478790000                       # Cumulative time (in ticks) in various power states
system.membus.trans_dist::ReadResp             610172                       # Transaction distribution
system.membus.trans_dist::WritebackDirty       354267                       # Transaction distribution
system.membus.trans_dist::CleanEvict           437750                       # Transaction distribution
system.membus.trans_dist::ReadExReq            184217                       # Transaction distribution
system.membus.trans_dist::ReadExResp           184217                       # Transaction distribution
system.membus.trans_dist::ReadSharedReq        610172                       # Transaction distribution
system.membus.pkt_count_system.l2cache.mem_side_port::system.mem_ctrl.port      2380795                       # Packet count per connected requestor and responder (bytes)
system.membus.pkt_count_system.l2cache.mem_side_port::total      2380795                       # Packet count per connected requestor and responder (bytes)
system.membus.pkt_count::total                2380795                       # Packet count per connected requestor and responder (bytes)
system.membus.pkt_size_system.l2cache.mem_side_port::system.mem_ctrl.port     73513984                       # Cumulative packet size per connected requestor and responder (bytes)
system.membus.pkt_size_system.l2cache.mem_side_port::total     73513984                       # Cumulative packet size per connected requestor and responder (bytes)
system.membus.pkt_size::total                73513984                       # Cumulative packet size per connected requestor and responder (bytes)
system.membus.snoops                                0                       # Total snoops (count)
system.membus.snoopTraffic                          0                       # Total snoop traffic (bytes)
system.membus.snoop_fanout::samples            794389                       # Request fanout histogram
system.membus.snoop_fanout::mean                    0                       # Request fanout histogram
system.membus.snoop_fanout::stdev                   0                       # Request fanout histogram
system.membus.snoop_fanout::underflows              0      0.00%      0.00% # Request fanout histogram
system.membus.snoop_fanout::0                  794389    100.00%    100.00% # Request fanout histogram
system.membus.snoop_fanout::1                       0      0.00%    100.00% # Request fanout histogram
system.membus.snoop_fanout::overflows               0      0.00%    100.00% # Request fanout histogram
system.membus.snoop_fanout::min_value               0                       # Request fanout histogram
system.membus.snoop_fanout::max_value               0                       # Request fanout histogram
system.membus.snoop_fanout::total              794389                       # Request fanout histogram
system.membus.power_state.pwrStateResidencyTicks::UNDEFINED 794478790000                       # Cumulative time (in ticks) in various power states
system.membus.reqLayer2.occupancy          3003474000                       # Layer occupancy (ticks)
system.membus.reqLayer2.utilization               0.4                       # Layer utilization (%)
system.membus.respLayer0.occupancy         4229139250                       # Layer occupancy (ticks)
system.membus.respLayer0.utilization              0.5                       # Layer utilization (%)

---------- End Simulation Statistics   ----------
