
---------- Begin Simulation Statistics ----------
final_tick                               2614729395000                       # Number of ticks from beginning of simulation (restored from checkpoints and never reset)
host_inst_rate                                 451400                       # Simulator instruction rate (inst/s)
host_mem_usage                                 664152                       # Number of bytes of host memory used
host_op_rate                                   767316                       # Simulator op (including micro ops) rate (op/s)
host_seconds                                  1274.82                       # Real time elapsed on the host
host_tick_rate                             2051054980                       # Simulator tick rate (ticks/s)
sim_freq                                 1000000000000                       # Frequency of simulated ticks
sim_insts                                   575454642                       # Number of instructions simulated
sim_ops                                     978190893                       # Number of ops (including micro ops) simulated
sim_seconds                                  2.614729                       # Number of seconds simulated
sim_ticks                                2614729395000                       # Number of ticks simulated
system.cpu.Branches                          31851447                       # Number of branches fetched
system.cpu.committedInsts                   575454642                       # Number of instructions committed
system.cpu.committedOps                     978190893                       # Number of ops (including micro ops) committed
system.cpu.idle_fraction                     0.000000                       # Percentage of idle cycles
system.cpu.not_idle_fraction                 1.000000                       # Percentage of non-idle cycles
system.cpu.numCycles                       2614729395                       # number of cpu cycles simulated
system.cpu.numWorkItemsCompleted                    0                       # number of work items this cpu completed
system.cpu.numWorkItemsStarted                      0                       # number of work items this cpu started
system.cpu.num_busy_cycles               2614729394.999000                       # Number of busy cycles
system.cpu.num_cc_register_reads            155141521                       # number of times the CC registers were read
system.cpu.num_cc_register_writes           162654601                       # number of times the CC registers were written
system.cpu.num_conditional_control_insts     29705122                       # number of instructions that are conditional controls
system.cpu.num_fp_alu_accesses              723696043                       # Number of float alu accesses
system.cpu.num_fp_insts                     723696043                       # number of float instructions
system.cpu.num_fp_register_reads           1022020909                       # number of times the floating registers were read
system.cpu.num_fp_register_writes           620017342                       # number of times the floating registers were written
system.cpu.num_func_calls                     1608984                       # number of times a function call or return occured
system.cpu.num_idle_cycles                   0.001000                       # Number of idle cycles
system.cpu.num_int_alu_accesses             539304650                       # Number of integer alu accesses
system.cpu.num_int_insts                    539304650                       # number of integer instructions
system.cpu.num_int_register_reads          1243037505                       # number of times the integer registers were read
system.cpu.num_int_register_writes          221683299                       # number of times the integer registers were written
system.cpu.num_load_insts                   187986141                       # Number of load instructions
system.cpu.num_mem_refs                     292192192                       # number of memory refs
system.cpu.num_store_insts                  104206051                       # Number of store instructions
system.cpu.num_vec_alu_accesses                     0                       # Number of vector alu accesses
system.cpu.num_vec_insts                            0                       # number of vector instructions
system.cpu.num_vec_register_reads                   0                       # number of times the vector registers were read
system.cpu.num_vec_register_writes                  0                       # number of times the vector registers were written
system.cpu.op_class::No_OpClass               1700258      0.17%      0.17% # Class of executed instruction
system.cpu.op_class::IntAlu                 388213689     39.69%     39.86% # Class of executed instruction
system.cpu.op_class::IntMult                  1511480      0.15%     40.02% # Class of executed instruction
system.cpu.op_class::IntDiv                    141302      0.01%     40.03% # Class of executed instruction
system.cpu.op_class::FloatAdd                81130357      8.29%     48.32% # Class of executed instruction
system.cpu.op_class::FloatCmp                       0      0.00%     48.32% # Class of executed instruction
system.cpu.op_class::FloatCvt                       0      0.00%     48.32% # Class of executed instruction
system.cpu.op_class::FloatMult                      0      0.00%     48.32% # Class of executed instruction
system.cpu.op_class::FloatMultAcc                   0      0.00%     48.32% # Class of executed instruction
system.cpu.op_class::FloatDiv                       0      0.00%     48.32% # Class of executed instruction
system.cpu.op_class::FloatMisc                      0      0.00%     48.32% # Class of executed instruction
system.cpu.op_class::FloatSqrt                      0      0.00%     48.32% # Class of executed instruction
system.cpu.op_class::SimdAdd                   491562      0.05%     48.37% # Class of executed instruction
system.cpu.op_class::SimdAddAcc                     0      0.00%     48.37% # Class of executed instruction
system.cpu.op_class::SimdAlu                  2949683      0.30%     48.68% # Class of executed instruction
system.cpu.op_class::SimdCmp                       18      0.00%     48.68% # Class of executed instruction
system.cpu.op_class::SimdCvt                      816      0.00%     48.68% # Class of executed instruction
system.cpu.op_class::SimdMisc                 2637173      0.27%     48.95% # Class of executed instruction
system.cpu.op_class::SimdMult                  245760      0.03%     48.97% # Class of executed instruction
system.cpu.op_class::SimdMultAcc                    0      0.00%     48.97% # Class of executed instruction
system.cpu.op_class::SimdShift                 368643      0.04%     49.01% # Class of executed instruction
system.cpu.op_class::SimdShiftAcc                   0      0.00%     49.01% # Class of executed instruction
system.cpu.op_class::SimdDiv                        0      0.00%     49.01% # Class of executed instruction
system.cpu.op_class::SimdSqrt                       0      0.00%     49.01% # Class of executed instruction
system.cpu.op_class::SimdFloatAdd           119030165     12.17%     61.18% # Class of executed instruction
system.cpu.op_class::SimdFloatAlu                   0      0.00%     61.18% # Class of executed instruction
system.cpu.op_class::SimdFloatCmp                   0      0.00%     61.18% # Class of executed instruction
system.cpu.op_class::SimdFloatCvt             1852644      0.19%     61.37% # Class of executed instruction
system.cpu.op_class::SimdFloatDiv                  70      0.00%     61.37% # Class of executed instruction
system.cpu.op_class::SimdFloatMisc                  0      0.00%     61.37% # Class of executed instruction
system.cpu.op_class::SimdFloatMult           85725170      8.76%     70.13% # Class of executed instruction
system.cpu.op_class::SimdFloatMultAcc               0      0.00%     70.13% # Class of executed instruction
system.cpu.op_class::SimdFloatSqrt                  6      0.00%     70.13% # Class of executed instruction
system.cpu.op_class::SimdReduceAdd                  0      0.00%     70.13% # Class of executed instruction
system.cpu.op_class::SimdReduceAlu                  0      0.00%     70.13% # Class of executed instruction
system.cpu.op_class::SimdReduceCmp                  0      0.00%     70.13% # Class of executed instruction
system.cpu.op_class::SimdFloatReduceAdd             0      0.00%     70.13% # Class of executed instruction
system.cpu.op_class::SimdFloatReduceCmp             0      0.00%     70.13% # Class of executed instruction
system.cpu.op_class::SimdAes                        0      0.00%     70.13% # Class of executed instruction
system.cpu.op_class::SimdAesMix                     0      0.00%     70.13% # Class of executed instruction
system.cpu.op_class::SimdSha1Hash                   0      0.00%     70.13% # Class of executed instruction
system.cpu.op_class::SimdSha1Hash2                  0      0.00%     70.13% # Class of executed instruction
system.cpu.op_class::SimdSha256Hash                 0      0.00%     70.13% # Class of executed instruction
system.cpu.op_class::SimdSha256Hash2                0      0.00%     70.13% # Class of executed instruction
system.cpu.op_class::SimdShaSigma2                  0      0.00%     70.13% # Class of executed instruction
system.cpu.op_class::SimdShaSigma3                  0      0.00%     70.13% # Class of executed instruction
system.cpu.op_class::SimdPredAlu                    0      0.00%     70.13% # Class of executed instruction
system.cpu.op_class::MemRead                  5927080      0.61%     70.74% # Class of executed instruction
system.cpu.op_class::MemWrite                 1856495      0.19%     70.93% # Class of executed instruction
system.cpu.op_class::FloatMemRead           182059061     18.61%     89.54% # Class of executed instruction
system.cpu.op_class::FloatMemWrite          102349556     10.46%    100.00% # Class of executed instruction
system.cpu.op_class::IprAccess                      0      0.00%    100.00% # Class of executed instruction
system.cpu.op_class::InstPrefetch                   0      0.00%    100.00% # Class of executed instruction
system.cpu.op_class::total                  978190988                       # Class of executed instruction
system.cpu.workload.numSyscalls                    72                       # Number of system calls
system.l2bus.snoop_filter.hit_multi_requests            0                       # Number of requests hitting in the snoop filter with multiple (>1) holders of the requested data.
system.l2bus.snoop_filter.hit_multi_snoops            0                       # Number of snoops hitting in the snoop filter with multiple (>1) holders of the requested data.
system.l2bus.snoop_filter.hit_single_requests      7979966                       # Number of requests hitting in the snoop filter with a single holder of the requested data.
system.l2bus.snoop_filter.hit_single_snoops        57010                       # Number of snoops hitting in the snoop filter with a single holder of the requested data.
system.l2bus.snoop_filter.tot_requests       15961212                       # Total number of requests made to the snoop filter.
system.l2bus.snoop_filter.tot_snoops            57010                       # Total number of snoops made to the snoop filter.
system.membus.snoop_filter.hit_multi_requests            0                       # Number of requests hitting in the snoop filter with multiple (>1) holders of the requested data.
system.membus.snoop_filter.hit_multi_snoops            0                       # Number of snoops hitting in the snoop filter with multiple (>1) holders of the requested data.
system.membus.snoop_filter.hit_single_requests      2921717                       # Number of requests hitting in the snoop filter with a single holder of the requested data.
system.membus.snoop_filter.hit_single_snoops            0                       # Number of snoops hitting in the snoop filter with a single holder of the requested data.
system.membus.snoop_filter.tot_requests       5847573                       # Total number of requests made to the snoop filter.
system.membus.snoop_filter.tot_snoops               0                       # Total number of snoops made to the snoop filter.
system.clk_domain.clock                          1000                       # Clock period in ticks
system.clk_domain.voltage_domain.voltage            1                       # Voltage in Volts
system.cpu.dcache.demand_hits::.cpu.data    284222124                       # number of demand (read+write) hits
system.cpu.dcache.demand_hits::total        284222124                       # number of demand (read+write) hits
system.cpu.dcache.overall_hits::.cpu.data    284222124                       # number of overall hits
system.cpu.dcache.overall_hits::total       284222124                       # number of overall hits
system.cpu.dcache.demand_misses::.cpu.data      7970134                       # number of demand (read+write) misses
system.cpu.dcache.demand_misses::total        7970134                       # number of demand (read+write) misses
system.cpu.dcache.overall_misses::.cpu.data      7970134                       # number of overall misses
system.cpu.dcache.overall_misses::total       7970134                       # number of overall misses
system.cpu.dcache.demand_miss_latency::.cpu.data 433880329000                       # number of demand (read+write) miss cycles
system.cpu.dcache.demand_miss_latency::total 433880329000                       # number of demand (read+write) miss cycles
system.cpu.dcache.overall_miss_latency::.cpu.data 433880329000                       # number of overall miss cycles
system.cpu.dcache.overall_miss_latency::total 433880329000                       # number of overall miss cycles
system.cpu.dcache.demand_accesses::.cpu.data    292192258                       # number of demand (read+write) accesses
system.cpu.dcache.demand_accesses::total    292192258                       # number of demand (read+write) accesses
system.cpu.dcache.overall_accesses::.cpu.data    292192258                       # number of overall (read+write) accesses
system.cpu.dcache.overall_accesses::total    292192258                       # number of overall (read+write) accesses
system.cpu.dcache.demand_miss_rate::.cpu.data     0.027277                       # miss rate for demand accesses
system.cpu.dcache.demand_miss_rate::total     0.027277                       # miss rate for demand accesses
system.cpu.dcache.overall_miss_rate::.cpu.data     0.027277                       # miss rate for overall accesses
system.cpu.dcache.overall_miss_rate::total     0.027277                       # miss rate for overall accesses
system.cpu.dcache.demand_avg_miss_latency::.cpu.data 54438.272807                       # average overall miss latency
system.cpu.dcache.demand_avg_miss_latency::total 54438.272807                       # average overall miss latency
system.cpu.dcache.overall_avg_miss_latency::.cpu.data 54438.272807                       # average overall miss latency
system.cpu.dcache.overall_avg_miss_latency::total 54438.272807                       # average overall miss latency
system.cpu.dcache.blocked_cycles::no_mshrs            0                       # number of cycles access was blocked
system.cpu.dcache.blocked_cycles::no_targets            0                       # number of cycles access was blocked
system.cpu.dcache.blocked::no_mshrs                 0                       # number of cycles access was blocked
system.cpu.dcache.blocked::no_targets               0                       # number of cycles access was blocked
system.cpu.dcache.avg_blocked_cycles::no_mshrs          nan                       # average number of cycles each access was blocked
system.cpu.dcache.avg_blocked_cycles::no_targets          nan                       # average number of cycles each access was blocked
system.cpu.dcache.writebacks::.writebacks      6540509                       # number of writebacks
system.cpu.dcache.writebacks::total           6540509                       # number of writebacks
system.cpu.dcache.demand_mshr_misses::.cpu.data      7970134                       # number of demand (read+write) MSHR misses
system.cpu.dcache.demand_mshr_misses::total      7970134                       # number of demand (read+write) MSHR misses
system.cpu.dcache.overall_mshr_misses::.cpu.data      7970134                       # number of overall MSHR misses
system.cpu.dcache.overall_mshr_misses::total      7970134                       # number of overall MSHR misses
system.cpu.dcache.demand_mshr_miss_latency::.cpu.data 417940061000                       # number of demand (read+write) MSHR miss cycles
system.cpu.dcache.demand_mshr_miss_latency::total 417940061000                       # number of demand (read+write) MSHR miss cycles
system.cpu.dcache.overall_mshr_miss_latency::.cpu.data 417940061000                       # number of overall MSHR miss cycles
system.cpu.dcache.overall_mshr_miss_latency::total 417940061000                       # number of overall MSHR miss cycles
system.cpu.dcache.demand_mshr_miss_rate::.cpu.data     0.027277                       # mshr miss rate for demand accesses
system.cpu.dcache.demand_mshr_miss_rate::total     0.027277                       # mshr miss rate for demand accesses
system.cpu.dcache.overall_mshr_miss_rate::.cpu.data     0.027277                       # mshr miss rate for overall accesses
system.cpu.dcache.overall_mshr_miss_rate::total     0.027277                       # mshr miss rate for overall accesses
system.cpu.dcache.demand_avg_mshr_miss_latency::.cpu.data 52438.272807                       # average overall mshr miss latency
system.cpu.dcache.demand_avg_mshr_miss_latency::total 52438.272807                       # average overall mshr miss latency
system.cpu.dcache.overall_avg_mshr_miss_latency::.cpu.data 52438.272807                       # average overall mshr miss latency
system.cpu.dcache.overall_avg_mshr_miss_latency::total 52438.272807                       # average overall mshr miss latency
system.cpu.dcache.replacements                7969110                       # number of replacements
system.cpu.dcache.ReadReq_hits::.cpu.data    184112544                       # number of ReadReq hits
system.cpu.dcache.ReadReq_hits::total       184112544                       # number of ReadReq hits
system.cpu.dcache.ReadReq_misses::.cpu.data      3873643                       # number of ReadReq misses
system.cpu.dcache.ReadReq_misses::total       3873643                       # number of ReadReq misses
system.cpu.dcache.ReadReq_miss_latency::.cpu.data 271076401000                       # number of ReadReq miss cycles
system.cpu.dcache.ReadReq_miss_latency::total 271076401000                       # number of ReadReq miss cycles
system.cpu.dcache.ReadReq_accesses::.cpu.data    187986187                       # number of ReadReq accesses(hits+misses)
system.cpu.dcache.ReadReq_accesses::total    187986187                       # number of ReadReq accesses(hits+misses)
system.cpu.dcache.ReadReq_miss_rate::.cpu.data     0.020606                       # miss rate for ReadReq accesses
system.cpu.dcache.ReadReq_miss_rate::total     0.020606                       # miss rate for ReadReq accesses
system.cpu.dcache.ReadReq_avg_miss_latency::.cpu.data 69979.706700                       # average ReadReq miss latency
system.cpu.dcache.ReadReq_avg_miss_latency::total 69979.706700                       # average ReadReq miss latency
system.cpu.dcache.ReadReq_mshr_misses::.cpu.data      3873643                       # number of ReadReq MSHR misses
system.cpu.dcache.ReadReq_mshr_misses::total      3873643                       # number of ReadReq MSHR misses
system.cpu.dcache.ReadReq_mshr_miss_latency::.cpu.data 263329115000                       # number of ReadReq MSHR miss cycles
system.cpu.dcache.ReadReq_mshr_miss_latency::total 263329115000                       # number of ReadReq MSHR miss cycles
system.cpu.dcache.ReadReq_mshr_miss_rate::.cpu.data     0.020606                       # mshr miss rate for ReadReq accesses
system.cpu.dcache.ReadReq_mshr_miss_rate::total     0.020606                       # mshr miss rate for ReadReq accesses
system.cpu.dcache.ReadReq_avg_mshr_miss_latency::.cpu.data 67979.706700                       # average ReadReq mshr miss latency
system.cpu.dcache.ReadReq_avg_mshr_miss_latency::total 67979.706700                       # average ReadReq mshr miss latency
system.cpu.dcache.WriteReq_hits::.cpu.data    100109580                       # number of WriteReq hits
system.cpu.dcache.WriteReq_hits::total      100109580                       # number of WriteReq hits
system.cpu.dcache.WriteReq_misses::.cpu.data      4096491                       # number of WriteReq misses
system.cpu.dcache.WriteReq_misses::total      4096491                       # number of WriteReq misses
system.cpu.dcache.WriteReq_miss_latency::.cpu.data 162803928000                       # number of WriteReq miss cycles
system.cpu.dcache.WriteReq_miss_latency::total 162803928000                       # number of WriteReq miss cycles
system.cpu.dcache.WriteReq_accesses::.cpu.data    104206071                       # number of WriteReq accesses(hits+misses)
system.cpu.dcache.WriteReq_accesses::total    104206071                       # number of WriteReq accesses(hits+misses)
system.cpu.dcache.WriteReq_miss_rate::.cpu.data     0.039311                       # miss rate for WriteReq accesses
system.cpu.dcache.WriteReq_miss_rate::total     0.039311                       # miss rate for WriteReq accesses
system.cpu.dcache.WriteReq_avg_miss_latency::.cpu.data 39742.288705                       # average WriteReq miss latency
system.cpu.dcache.WriteReq_avg_miss_latency::total 39742.288705                       # average WriteReq miss latency
system.cpu.dcache.WriteReq_mshr_misses::.cpu.data      4096491                       # number of WriteReq MSHR misses
system.cpu.dcache.WriteReq_mshr_misses::total      4096491                       # number of WriteReq MSHR misses
system.cpu.dcache.WriteReq_mshr_miss_latency::.cpu.data 154610946000                       # number of WriteReq MSHR miss cycles
system.cpu.dcache.WriteReq_mshr_miss_latency::total 154610946000                       # number of WriteReq MSHR miss cycles
system.cpu.dcache.WriteReq_mshr_miss_rate::.cpu.data     0.039311                       # mshr miss rate for WriteReq accesses
system.cpu.dcache.WriteReq_mshr_miss_rate::total     0.039311                       # mshr miss rate for WriteReq accesses
system.cpu.dcache.WriteReq_avg_mshr_miss_latency::.cpu.data 37742.288705                       # average WriteReq mshr miss latency
system.cpu.dcache.WriteReq_avg_mshr_miss_latency::total 37742.288705                       # average WriteReq mshr miss latency
system.cpu.dcache.power_state.pwrStateResidencyTicks::UNDEFINED 2614729395000                       # Cumulative time (in ticks) in various power states
system.cpu.dcache.tags.tagsinuse          1023.902225                       # Cycle average of tags in use
system.cpu.dcache.tags.total_refs           292192258                       # Total number of references to valid blocks.
system.cpu.dcache.tags.sampled_refs           7970134                       # Sample count of references to valid blocks.
system.cpu.dcache.tags.avg_refs             36.660897                       # Average number of references to valid blocks.
system.cpu.dcache.tags.warmup_cycle            224000                       # Cycle when the warmup percentage was hit.
system.cpu.dcache.tags.occ_blocks::.cpu.data  1023.902225                       # Average occupied blocks per requestor
system.cpu.dcache.tags.occ_percent::.cpu.data     0.999905                       # Average percentage of cache occupancy
system.cpu.dcache.tags.occ_percent::total     0.999905                       # Average percentage of cache occupancy
system.cpu.dcache.tags.occ_task_id_blocks::1024         1024                       # Occupied blocks per task id
system.cpu.dcache.tags.age_task_id_blocks_1024::0           26                       # Occupied blocks per task id
system.cpu.dcache.tags.age_task_id_blocks_1024::1           95                       # Occupied blocks per task id
system.cpu.dcache.tags.age_task_id_blocks_1024::2          864                       # Occupied blocks per task id
system.cpu.dcache.tags.age_task_id_blocks_1024::3           28                       # Occupied blocks per task id
system.cpu.dcache.tags.age_task_id_blocks_1024::4           11                       # Occupied blocks per task id
system.cpu.dcache.tags.occ_task_id_percent::1024            1                       # Percentage of cache occupancy per task id
system.cpu.dcache.tags.tag_accesses         592354650                       # Number of tag accesses
system.cpu.dcache.tags.data_accesses        592354650                       # Number of data accesses
system.cpu.dcache.tags.power_state.pwrStateResidencyTicks::UNDEFINED 2614729395000                       # Cumulative time (in ticks) in various power states
system.cpu.dtb.rdAccesses                   187986188                       # TLB accesses on read requests
system.cpu.dtb.wrAccesses                   104206093                       # TLB accesses on write requests
system.cpu.dtb.rdMisses                        108733                       # TLB misses on read requests
system.cpu.dtb.wrMisses                         99901                       # TLB misses on write requests
system.cpu.dtb.walker.power_state.pwrStateResidencyTicks::UNDEFINED 2614729395000                       # Cumulative time (in ticks) in various power states
system.cpu.icache.demand_hits::.cpu.inst    805853242                       # number of demand (read+write) hits
system.cpu.icache.demand_hits::total        805853242                       # number of demand (read+write) hits
system.cpu.icache.overall_hits::.cpu.inst    805853242                       # number of overall hits
system.cpu.icache.overall_hits::total       805853242                       # number of overall hits
system.cpu.icache.demand_misses::.cpu.inst        11112                       # number of demand (read+write) misses
system.cpu.icache.demand_misses::total          11112                       # number of demand (read+write) misses
system.cpu.icache.overall_misses::.cpu.inst        11112                       # number of overall misses
system.cpu.icache.overall_misses::total         11112                       # number of overall misses
system.cpu.icache.demand_miss_latency::.cpu.inst    699000000                       # number of demand (read+write) miss cycles
system.cpu.icache.demand_miss_latency::total    699000000                       # number of demand (read+write) miss cycles
system.cpu.icache.overall_miss_latency::.cpu.inst    699000000                       # number of overall miss cycles
system.cpu.icache.overall_miss_latency::total    699000000                       # number of overall miss cycles
system.cpu.icache.demand_accesses::.cpu.inst    805864354                       # number of demand (read+write) accesses
system.cpu.icache.demand_accesses::total    805864354                       # number of demand (read+write) accesses
system.cpu.icache.overall_accesses::.cpu.inst    805864354                       # number of overall (read+write) accesses
system.cpu.icache.overall_accesses::total    805864354                       # number of overall (read+write) accesses
system.cpu.icache.demand_miss_rate::.cpu.inst     0.000014                       # miss rate for demand accesses
system.cpu.icache.demand_miss_rate::total     0.000014                       # miss rate for demand accesses
system.cpu.icache.overall_miss_rate::.cpu.inst     0.000014                       # miss rate for overall accesses
system.cpu.icache.overall_miss_rate::total     0.000014                       # miss rate for overall accesses
system.cpu.icache.demand_avg_miss_latency::.cpu.inst 62904.967603                       # average overall miss latency
system.cpu.icache.demand_avg_miss_latency::total 62904.967603                       # average overall miss latency
system.cpu.icache.overall_avg_miss_latency::.cpu.inst 62904.967603                       # average overall miss latency
system.cpu.icache.overall_avg_miss_latency::total 62904.967603                       # average overall miss latency
system.cpu.icache.blocked_cycles::no_mshrs            0                       # number of cycles access was blocked
system.cpu.icache.blocked_cycles::no_targets            0                       # number of cycles access was blocked
system.cpu.icache.blocked::no_mshrs                 0                       # number of cycles access was blocked
system.cpu.icache.blocked::no_targets               0                       # number of cycles access was blocked
system.cpu.icache.avg_blocked_cycles::no_mshrs          nan                       # average number of cycles each access was blocked
system.cpu.icache.avg_blocked_cycles::no_targets          nan                       # average number of cycles each access was blocked
system.cpu.icache.demand_mshr_misses::.cpu.inst        11112                       # number of demand (read+write) MSHR misses
system.cpu.icache.demand_mshr_misses::total        11112                       # number of demand (read+write) MSHR misses
system.cpu.icache.overall_mshr_misses::.cpu.inst        11112                       # number of overall MSHR misses
system.cpu.icache.overall_mshr_misses::total        11112                       # number of overall MSHR misses
system.cpu.icache.demand_mshr_miss_latency::.cpu.inst    676776000                       # number of demand (read+write) MSHR miss cycles
system.cpu.icache.demand_mshr_miss_latency::total    676776000                       # number of demand (read+write) MSHR miss cycles
system.cpu.icache.overall_mshr_miss_latency::.cpu.inst    676776000                       # number of overall MSHR miss cycles
system.cpu.icache.overall_mshr_miss_latency::total    676776000                       # number of overall MSHR miss cycles
system.cpu.icache.demand_mshr_miss_rate::.cpu.inst     0.000014                       # mshr miss rate for demand accesses
system.cpu.icache.demand_mshr_miss_rate::total     0.000014                       # mshr miss rate for demand accesses
system.cpu.icache.overall_mshr_miss_rate::.cpu.inst     0.000014                       # mshr miss rate for overall accesses
system.cpu.icache.overall_mshr_miss_rate::total     0.000014                       # mshr miss rate for overall accesses
system.cpu.icache.demand_avg_mshr_miss_latency::.cpu.inst 60904.967603                       # average overall mshr miss latency
system.cpu.icache.demand_avg_mshr_miss_latency::total 60904.967603                       # average overall mshr miss latency
system.cpu.icache.overall_avg_mshr_miss_latency::.cpu.inst 60904.967603                       # average overall mshr miss latency
system.cpu.icache.overall_avg_mshr_miss_latency::total 60904.967603                       # average overall mshr miss latency
system.cpu.icache.replacements                  10856                       # number of replacements
system.cpu.icache.ReadReq_hits::.cpu.inst    805853242                       # number of ReadReq hits
system.cpu.icache.ReadReq_hits::total       805853242                       # number of ReadReq hits
system.cpu.icache.ReadReq_misses::.cpu.inst        11112                       # number of ReadReq misses
system.cpu.icache.ReadReq_misses::total         11112                       # number of ReadReq misses
system.cpu.icache.ReadReq_miss_latency::.cpu.inst    699000000                       # number of ReadReq miss cycles
system.cpu.icache.ReadReq_miss_latency::total    699000000                       # number of ReadReq miss cycles
system.cpu.icache.ReadReq_accesses::.cpu.inst    805864354                       # number of ReadReq accesses(hits+misses)
system.cpu.icache.ReadReq_accesses::total    805864354                       # number of ReadReq accesses(hits+misses)
system.cpu.icache.ReadReq_miss_rate::.cpu.inst     0.000014                       # miss rate for ReadReq accesses
system.cpu.icache.ReadReq_miss_rate::total     0.000014                       # miss rate for ReadReq accesses
system.cpu.icache.ReadReq_avg_miss_latency::.cpu.inst 62904.967603                       # average ReadReq miss latency
system.cpu.icache.ReadReq_avg_miss_latency::total 62904.967603                       # average ReadReq miss latency
system.cpu.icache.ReadReq_mshr_misses::.cpu.inst        11112                       # number of ReadReq MSHR misses
system.cpu.icache.ReadReq_mshr_misses::total        11112                       # number of ReadReq MSHR misses
system.cpu.icache.ReadReq_mshr_miss_latency::.cpu.inst    676776000                       # number of ReadReq MSHR miss cycles
system.cpu.icache.ReadReq_mshr_miss_latency::total    676776000                       # number of ReadReq MSHR miss cycles
system.cpu.icache.ReadReq_mshr_miss_rate::.cpu.inst     0.000014                       # mshr miss rate for ReadReq accesses
system.cpu.icache.ReadReq_mshr_miss_rate::total     0.000014                       # mshr miss rate for ReadReq accesses
system.cpu.icache.ReadReq_avg_mshr_miss_latency::.cpu.inst 60904.967603                       # average ReadReq mshr miss latency
system.cpu.icache.ReadReq_avg_mshr_miss_latency::total 60904.967603                       # average ReadReq mshr miss latency
system.cpu.icache.power_state.pwrStateResidencyTicks::UNDEFINED 2614729395000                       # Cumulative time (in ticks) in various power states
system.cpu.icache.tags.tagsinuse           255.995144                       # Cycle average of tags in use
system.cpu.icache.tags.total_refs           805864354                       # Total number of references to valid blocks.
system.cpu.icache.tags.sampled_refs             11112                       # Sample count of references to valid blocks.
system.cpu.icache.tags.avg_refs          72521.990101                       # Average number of references to valid blocks.
system.cpu.icache.tags.warmup_cycle            107000                       # Cycle when the warmup percentage was hit.
system.cpu.icache.tags.occ_blocks::.cpu.inst   255.995144                       # Average occupied blocks per requestor
system.cpu.icache.tags.occ_percent::.cpu.inst     0.999981                       # Average percentage of cache occupancy
system.cpu.icache.tags.occ_percent::total     0.999981                       # Average percentage of cache occupancy
system.cpu.icache.tags.occ_task_id_blocks::1024          256                       # Occupied blocks per task id
system.cpu.icache.tags.age_task_id_blocks_1024::0           39                       # Occupied blocks per task id
system.cpu.icache.tags.age_task_id_blocks_1024::1          104                       # Occupied blocks per task id
system.cpu.icache.tags.age_task_id_blocks_1024::2          111                       # Occupied blocks per task id
system.cpu.icache.tags.age_task_id_blocks_1024::4            2                       # Occupied blocks per task id
system.cpu.icache.tags.occ_task_id_percent::1024            1                       # Percentage of cache occupancy per task id
system.cpu.icache.tags.tag_accesses        1611739820                       # Number of tag accesses
system.cpu.icache.tags.data_accesses       1611739820                       # Number of data accesses
system.cpu.icache.tags.power_state.pwrStateResidencyTicks::UNDEFINED 2614729395000                       # Cumulative time (in ticks) in various power states
system.cpu.interrupts.clk_domain.clock          16000                       # Clock period in ticks
system.cpu.itb.rdAccesses                           0                       # TLB accesses on read requests
system.cpu.itb.wrAccesses                   805864354                       # TLB accesses on write requests
system.cpu.itb.rdMisses                             0                       # TLB misses on read requests
system.cpu.itb.wrMisses                           111                       # TLB misses on write requests
system.cpu.itb.walker.power_state.pwrStateResidencyTicks::UNDEFINED 2614729395000                       # Cumulative time (in ticks) in various power states
system.cpu.power_state.pwrStateResidencyTicks::ON 2614729395000                       # Cumulative time (in ticks) in various power states
system.cpu.thread_0.numInsts                        0                       # Number of Instructions committed
system.cpu.thread_0.numOps                          0                       # Number of Ops committed
system.cpu.thread_0.numMemRefs                      0                       # Number of Memory References
system.l2bus.trans_dist::ReadResp             3884755                       # Transaction distribution
system.l2bus.trans_dist::WritebackDirty       9114335                       # Transaction distribution
system.l2bus.trans_dist::CleanEvict           1829532                       # Transaction distribution
system.l2bus.trans_dist::ReadExReq            4096491                       # Transaction distribution
system.l2bus.trans_dist::ReadExResp           4096491                       # Transaction distribution
system.l2bus.trans_dist::ReadSharedReq        3884755                       # Transaction distribution
system.l2bus.pkt_count_system.cpu.icache.mem_side_port::system.l2cache.cpu_side_port        33080                       # Packet count per connected requestor and responder (bytes)
system.l2bus.pkt_count_system.cpu.dcache.mem_side_port::system.l2cache.cpu_side_port     23909378                       # Packet count per connected requestor and responder (bytes)
system.l2bus.pkt_count::total                23942458                       # Packet count per connected requestor and responder (bytes)
system.l2bus.pkt_size_system.cpu.icache.mem_side_port::system.l2cache.cpu_side_port       711168                       # Cumulative packet size per connected requestor and responder (bytes)
system.l2bus.pkt_size_system.cpu.dcache.mem_side_port::system.l2cache.cpu_side_port    928681152                       # Cumulative packet size per connected requestor and responder (bytes)
system.l2bus.pkt_size::total                929392320                       # Cumulative packet size per connected requestor and responder (bytes)
system.l2bus.snoops                           2963901                       # Total snoops (count)
system.l2bus.snoopTraffic                   164724864                       # Total snoop traffic (bytes)
system.l2bus.snoop_fanout::samples           10945147                       # Request fanout histogram
system.l2bus.snoop_fanout::mean              0.005209                       # Request fanout histogram
system.l2bus.snoop_fanout::stdev             0.071983                       # Request fanout histogram
system.l2bus.snoop_fanout::underflows               0      0.00%      0.00% # Request fanout histogram
system.l2bus.snoop_fanout::0                 10888137     99.48%     99.48% # Request fanout histogram
system.l2bus.snoop_fanout::1                    57010      0.52%    100.00% # Request fanout histogram
system.l2bus.snoop_fanout::2                        0      0.00%    100.00% # Request fanout histogram
system.l2bus.snoop_fanout::overflows                0      0.00%    100.00% # Request fanout histogram
system.l2bus.snoop_fanout::min_value                0                       # Request fanout histogram
system.l2bus.snoop_fanout::max_value                1                       # Request fanout histogram
system.l2bus.snoop_fanout::total             10945147                       # Request fanout histogram
system.l2bus.power_state.pwrStateResidencyTicks::UNDEFINED 2614729395000                       # Cumulative time (in ticks) in various power states
system.l2bus.reqLayer0.occupancy          29042230000                       # Layer occupancy (ticks)
system.l2bus.reqLayer0.utilization                1.1                       # Layer utilization (%)
system.l2bus.respLayer0.occupancy            33336000                       # Layer occupancy (ticks)
system.l2bus.respLayer0.utilization               0.0                       # Layer utilization (%)
system.l2bus.respLayer1.occupancy         23910402000                       # Layer occupancy (ticks)
system.l2bus.respLayer1.utilization               0.9                       # Layer utilization (%)
system.l2cache.demand_hits::.cpu.inst            6000                       # number of demand (read+write) hits
system.l2cache.demand_hits::.cpu.data         5049390                       # number of demand (read+write) hits
system.l2cache.demand_hits::total             5055390                       # number of demand (read+write) hits
system.l2cache.overall_hits::.cpu.inst           6000                       # number of overall hits
system.l2cache.overall_hits::.cpu.data        5049390                       # number of overall hits
system.l2cache.overall_hits::total            5055390                       # number of overall hits
system.l2cache.demand_misses::.cpu.inst          5112                       # number of demand (read+write) misses
system.l2cache.demand_misses::.cpu.data       2920744                       # number of demand (read+write) misses
system.l2cache.demand_misses::total           2925856                       # number of demand (read+write) misses
system.l2cache.overall_misses::.cpu.inst         5112                       # number of overall misses
system.l2cache.overall_misses::.cpu.data      2920744                       # number of overall misses
system.l2cache.overall_misses::total          2925856                       # number of overall misses
system.l2cache.demand_miss_latency::.cpu.inst    517325000                       # number of demand (read+write) miss cycles
system.l2cache.demand_miss_latency::.cpu.data 287974315000                       # number of demand (read+write) miss cycles
system.l2cache.demand_miss_latency::total 288491640000                       # number of demand (read+write) miss cycles
system.l2cache.overall_miss_latency::.cpu.inst    517325000                       # number of overall miss cycles
system.l2cache.overall_miss_latency::.cpu.data 287974315000                       # number of overall miss cycles
system.l2cache.overall_miss_latency::total 288491640000                       # number of overall miss cycles
system.l2cache.demand_accesses::.cpu.inst        11112                       # number of demand (read+write) accesses
system.l2cache.demand_accesses::.cpu.data      7970134                       # number of demand (read+write) accesses
system.l2cache.demand_accesses::total         7981246                       # number of demand (read+write) accesses
system.l2cache.overall_accesses::.cpu.inst        11112                       # number of overall (read+write) accesses
system.l2cache.overall_accesses::.cpu.data      7970134                       # number of overall (read+write) accesses
system.l2cache.overall_accesses::total        7981246                       # number of overall (read+write) accesses
system.l2cache.demand_miss_rate::.cpu.inst     0.460043                       # miss rate for demand accesses
system.l2cache.demand_miss_rate::.cpu.data     0.366461                       # miss rate for demand accesses
system.l2cache.demand_miss_rate::total       0.366591                       # miss rate for demand accesses
system.l2cache.overall_miss_rate::.cpu.inst     0.460043                       # miss rate for overall accesses
system.l2cache.overall_miss_rate::.cpu.data     0.366461                       # miss rate for overall accesses
system.l2cache.overall_miss_rate::total      0.366591                       # miss rate for overall accesses
system.l2cache.demand_avg_miss_latency::.cpu.inst 101198.161189                       # average overall miss latency
system.l2cache.demand_avg_miss_latency::.cpu.data 98596.218977                       # average overall miss latency
system.l2cache.demand_avg_miss_latency::total 98600.765041                       # average overall miss latency
system.l2cache.overall_avg_miss_latency::.cpu.inst 101198.161189                       # average overall miss latency
system.l2cache.overall_avg_miss_latency::.cpu.data 98596.218977                       # average overall miss latency
system.l2cache.overall_avg_miss_latency::total 98600.765041                       # average overall miss latency
system.l2cache.blocked_cycles::no_mshrs             0                       # number of cycles access was blocked
system.l2cache.blocked_cycles::no_targets            0                       # number of cycles access was blocked
system.l2cache.blocked::no_mshrs                    0                       # number of cycles access was blocked
system.l2cache.blocked::no_targets                  0                       # number of cycles access was blocked
system.l2cache.avg_blocked_cycles::no_mshrs          nan                       # average number of cycles each access was blocked
system.l2cache.avg_blocked_cycles::no_targets          nan                       # average number of cycles each access was blocked
system.l2cache.writebacks::.writebacks        2573826                       # number of writebacks
system.l2cache.writebacks::total              2573826                       # number of writebacks
system.l2cache.demand_mshr_misses::.cpu.inst         5112                       # number of demand (read+write) MSHR misses
system.l2cache.demand_mshr_misses::.cpu.data      2920744                       # number of demand (read+write) MSHR misses
system.l2cache.demand_mshr_misses::total      2925856                       # number of demand (read+write) MSHR misses
system.l2cache.overall_mshr_misses::.cpu.inst         5112                       # number of overall MSHR misses
system.l2cache.overall_mshr_misses::.cpu.data      2920744                       # number of overall MSHR misses
system.l2cache.overall_mshr_misses::total      2925856                       # number of overall MSHR misses
system.l2cache.demand_mshr_miss_latency::.cpu.inst    415085000                       # number of demand (read+write) MSHR miss cycles
system.l2cache.demand_mshr_miss_latency::.cpu.data 229559435000                       # number of demand (read+write) MSHR miss cycles
system.l2cache.demand_mshr_miss_latency::total 229974520000                       # number of demand (read+write) MSHR miss cycles
system.l2cache.overall_mshr_miss_latency::.cpu.inst    415085000                       # number of overall MSHR miss cycles
system.l2cache.overall_mshr_miss_latency::.cpu.data 229559435000                       # number of overall MSHR miss cycles
system.l2cache.overall_mshr_miss_latency::total 229974520000                       # number of overall MSHR miss cycles
system.l2cache.demand_mshr_miss_rate::.cpu.inst     0.460043                       # mshr miss rate for demand accesses
system.l2cache.demand_mshr_miss_rate::.cpu.data     0.366461                       # mshr miss rate for demand accesses
system.l2cache.demand_mshr_miss_rate::total     0.366591                       # mshr miss rate for demand accesses
system.l2cache.overall_mshr_miss_rate::.cpu.inst     0.460043                       # mshr miss rate for overall accesses
system.l2cache.overall_mshr_miss_rate::.cpu.data     0.366461                       # mshr miss rate for overall accesses
system.l2cache.overall_mshr_miss_rate::total     0.366591                       # mshr miss rate for overall accesses
system.l2cache.demand_avg_mshr_miss_latency::.cpu.inst 81198.161189                       # average overall mshr miss latency
system.l2cache.demand_avg_mshr_miss_latency::.cpu.data 78596.218977                       # average overall mshr miss latency
system.l2cache.demand_avg_mshr_miss_latency::total 78600.765041                       # average overall mshr miss latency
system.l2cache.overall_avg_mshr_miss_latency::.cpu.inst 81198.161189                       # average overall mshr miss latency
system.l2cache.overall_avg_mshr_miss_latency::.cpu.data 78596.218977                       # average overall mshr miss latency
system.l2cache.overall_avg_mshr_miss_latency::total 78600.765041                       # average overall mshr miss latency
system.l2cache.replacements                   2936357                       # number of replacements
system.l2cache.WritebackDirty_hits::.writebacks      6540077                       # number of WritebackDirty hits
system.l2cache.WritebackDirty_hits::total      6540077                       # number of WritebackDirty hits
system.l2cache.WritebackDirty_misses::.writebacks          432                       # number of WritebackDirty misses
system.l2cache.WritebackDirty_misses::total          432                       # number of WritebackDirty misses
system.l2cache.WritebackDirty_accesses::.writebacks      6540509                       # number of WritebackDirty accesses(hits+misses)
system.l2cache.WritebackDirty_accesses::total      6540509                       # number of WritebackDirty accesses(hits+misses)
system.l2cache.WritebackDirty_miss_rate::.writebacks     0.000066                       # miss rate for WritebackDirty accesses
system.l2cache.WritebackDirty_miss_rate::total     0.000066                       # miss rate for WritebackDirty accesses
system.l2cache.WritebackDirty_mshr_misses::.writebacks          432                       # number of WritebackDirty MSHR misses
system.l2cache.WritebackDirty_mshr_misses::total          432                       # number of WritebackDirty MSHR misses
system.l2cache.WritebackDirty_mshr_miss_rate::.writebacks     0.000066                       # mshr miss rate for WritebackDirty accesses
system.l2cache.WritebackDirty_mshr_miss_rate::total     0.000066                       # mshr miss rate for WritebackDirty accesses
system.l2cache.CleanEvict_mshr_misses::.writebacks        14394                       # number of CleanEvict MSHR misses
system.l2cache.CleanEvict_mshr_misses::total        14394                       # number of CleanEvict MSHR misses
system.l2cache.CleanEvict_mshr_miss_rate::.writebacks          inf                       # mshr miss rate for CleanEvict accesses
system.l2cache.CleanEvict_mshr_miss_rate::total          inf                       # mshr miss rate for CleanEvict accesses
system.l2cache.ReadExReq_hits::.cpu.data      3373791                       # number of ReadExReq hits
system.l2cache.ReadExReq_hits::total          3373791                       # number of ReadExReq hits
system.l2cache.ReadExReq_misses::.cpu.data       722700                       # number of ReadExReq misses
system.l2cache.ReadExReq_misses::total         722700                       # number of ReadExReq misses
system.l2cache.ReadExReq_miss_latency::.cpu.data  71453717000                       # number of ReadExReq miss cycles
system.l2cache.ReadExReq_miss_latency::total  71453717000                       # number of ReadExReq miss cycles
system.l2cache.ReadExReq_accesses::.cpu.data      4096491                       # number of ReadExReq accesses(hits+misses)
system.l2cache.ReadExReq_accesses::total      4096491                       # number of ReadExReq accesses(hits+misses)
system.l2cache.ReadExReq_miss_rate::.cpu.data     0.176419                       # miss rate for ReadExReq accesses
system.l2cache.ReadExReq_miss_rate::total     0.176419                       # miss rate for ReadExReq accesses
system.l2cache.ReadExReq_avg_miss_latency::.cpu.data 98870.509202                       # average ReadExReq miss latency
system.l2cache.ReadExReq_avg_miss_latency::total 98870.509202                       # average ReadExReq miss latency
system.l2cache.ReadExReq_mshr_misses::.cpu.data       722700                       # number of ReadExReq MSHR misses
system.l2cache.ReadExReq_mshr_misses::total       722700                       # number of ReadExReq MSHR misses
system.l2cache.ReadExReq_mshr_miss_latency::.cpu.data  56999717000                       # number of ReadExReq MSHR miss cycles
system.l2cache.ReadExReq_mshr_miss_latency::total  56999717000                       # number of ReadExReq MSHR miss cycles
system.l2cache.ReadExReq_mshr_miss_rate::.cpu.data     0.176419                       # mshr miss rate for ReadExReq accesses
system.l2cache.ReadExReq_mshr_miss_rate::total     0.176419                       # mshr miss rate for ReadExReq accesses
system.l2cache.ReadExReq_avg_mshr_miss_latency::.cpu.data 78870.509202                       # average ReadExReq mshr miss latency
system.l2cache.ReadExReq_avg_mshr_miss_latency::total 78870.509202                       # average ReadExReq mshr miss latency
system.l2cache.ReadSharedReq_hits::.cpu.inst         6000                       # number of ReadSharedReq hits
system.l2cache.ReadSharedReq_hits::.cpu.data      1675599                       # number of ReadSharedReq hits
system.l2cache.ReadSharedReq_hits::total      1681599                       # number of ReadSharedReq hits
system.l2cache.ReadSharedReq_misses::.cpu.inst         5112                       # number of ReadSharedReq misses
system.l2cache.ReadSharedReq_misses::.cpu.data      2198044                       # number of ReadSharedReq misses
system.l2cache.ReadSharedReq_misses::total      2203156                       # number of ReadSharedReq misses
system.l2cache.ReadSharedReq_miss_latency::.cpu.inst    517325000                       # number of ReadSharedReq miss cycles
system.l2cache.ReadSharedReq_miss_latency::.cpu.data 216520598000                       # number of ReadSharedReq miss cycles
system.l2cache.ReadSharedReq_miss_latency::total 217037923000                       # number of ReadSharedReq miss cycles
system.l2cache.ReadSharedReq_accesses::.cpu.inst        11112                       # number of ReadSharedReq accesses(hits+misses)
system.l2cache.ReadSharedReq_accesses::.cpu.data      3873643                       # number of ReadSharedReq accesses(hits+misses)
system.l2cache.ReadSharedReq_accesses::total      3884755                       # number of ReadSharedReq accesses(hits+misses)
system.l2cache.ReadSharedReq_miss_rate::.cpu.inst     0.460043                       # miss rate for ReadSharedReq accesses
system.l2cache.ReadSharedReq_miss_rate::.cpu.data     0.567436                       # miss rate for ReadSharedReq accesses
system.l2cache.ReadSharedReq_miss_rate::total     0.567129                       # miss rate for ReadSharedReq accesses
system.l2cache.ReadSharedReq_avg_miss_latency::.cpu.inst 101198.161189                       # average ReadSharedReq miss latency
system.l2cache.ReadSharedReq_avg_miss_latency::.cpu.data 98506.034456                       # average ReadSharedReq miss latency
system.l2cache.ReadSharedReq_avg_miss_latency::total 98512.281019                       # average ReadSharedReq miss latency
system.l2cache.ReadSharedReq_mshr_misses::.cpu.inst         5112                       # number of ReadSharedReq MSHR misses
system.l2cache.ReadSharedReq_mshr_misses::.cpu.data      2198044                       # number of ReadSharedReq MSHR misses
system.l2cache.ReadSharedReq_mshr_misses::total      2203156                       # number of ReadSharedReq MSHR misses
system.l2cache.ReadSharedReq_mshr_miss_latency::.cpu.inst    415085000                       # number of ReadSharedReq MSHR miss cycles
system.l2cache.ReadSharedReq_mshr_miss_latency::.cpu.data 172559718000                       # number of ReadSharedReq MSHR miss cycles
system.l2cache.ReadSharedReq_mshr_miss_latency::total 172974803000                       # number of ReadSharedReq MSHR miss cycles
system.l2cache.ReadSharedReq_mshr_miss_rate::.cpu.inst     0.460043                       # mshr miss rate for ReadSharedReq accesses
system.l2cache.ReadSharedReq_mshr_miss_rate::.cpu.data     0.567436                       # mshr miss rate for ReadSharedReq accesses
system.l2cache.ReadSharedReq_mshr_miss_rate::total     0.567129                       # mshr miss rate for ReadSharedReq accesses
system.l2cache.ReadSharedReq_avg_mshr_miss_latency::.cpu.inst 81198.161189                       # average ReadSharedReq mshr miss latency
system.l2cache.ReadSharedReq_avg_mshr_miss_latency::.cpu.data 78506.034456                       # average ReadSharedReq mshr miss latency
system.l2cache.ReadSharedReq_avg_mshr_miss_latency::total 78512.281019                       # average ReadSharedReq mshr miss latency
system.l2cache.power_state.pwrStateResidencyTicks::UNDEFINED 2614729395000                       # Cumulative time (in ticks) in various power states
system.l2cache.replacement_policy.totalBypasses        27976                       # Total number of cache bypasses
system.l2cache.replacement_policy.effectiveBypasses            9                       # Bypasses that correctly skipped non-reused blocks
system.l2cache.replacement_policy.ineffectiveBypasses         8549                       # Bypasses that incorrectly skipped requested blocks
system.l2cache.replacement_policy.virtualEffectiveBypasses           69                       # Virtual bypasses correctly predicting non-reused blocks
system.l2cache.replacement_policy.virtualIneffectiveBypasses       135104                       # Virtual bypasses incorrectly predicting requested blocks
system.l2cache.tags.tagsinuse             4095.125863                       # Cycle average of tags in use
system.l2cache.tags.total_refs               15918842                       # Total number of references to valid blocks.
system.l2cache.tags.sampled_refs              2940453                       # Sample count of references to valid blocks.
system.l2cache.tags.avg_refs                 5.413738                       # Average number of references to valid blocks.
system.l2cache.tags.warmup_cycle                86000                       # Cycle when the warmup percentage was hit.
system.l2cache.tags.occ_blocks::.writebacks   267.335303                       # Average occupied blocks per requestor
system.l2cache.tags.occ_blocks::.cpu.inst     2.055310                       # Average occupied blocks per requestor
system.l2cache.tags.occ_blocks::.cpu.data  3825.735249                       # Average occupied blocks per requestor
system.l2cache.tags.occ_percent::.writebacks     0.065267                       # Average percentage of cache occupancy
system.l2cache.tags.occ_percent::.cpu.inst     0.000502                       # Average percentage of cache occupancy
system.l2cache.tags.occ_percent::.cpu.data     0.934017                       # Average percentage of cache occupancy
system.l2cache.tags.occ_percent::total       0.999787                       # Average percentage of cache occupancy
system.l2cache.tags.occ_task_id_blocks::1024         4096                       # Occupied blocks per task id
system.l2cache.tags.age_task_id_blocks_1024::0           62                       # Occupied blocks per task id
system.l2cache.tags.age_task_id_blocks_1024::1          132                       # Occupied blocks per task id
system.l2cache.tags.age_task_id_blocks_1024::2         1924                       # Occupied blocks per task id
system.l2cache.tags.age_task_id_blocks_1024::3         1213                       # Occupied blocks per task id
system.l2cache.tags.age_task_id_blocks_1024::4          765                       # Occupied blocks per task id
system.l2cache.tags.occ_task_id_percent::1024            1                       # Percentage of cache occupancy per task id
system.l2cache.tags.tag_accesses            130630149                       # Number of tag accesses
system.l2cache.tags.data_accesses           130630149                       # Number of data accesses
system.l2cache.tags.power_state.pwrStateResidencyTicks::UNDEFINED 2614729395000                       # Cumulative time (in ticks) in various power states
system.mem_ctrl.avgPriority_.writebacks::samples   2574258.00                       # Average QoS priority value for accepted requests
system.mem_ctrl.avgPriority_.cpu.inst::samples      5112.00                       # Average QoS priority value for accepted requests
system.mem_ctrl.avgPriority_.cpu.data::samples   2920583.00                       # Average QoS priority value for accepted requests
system.mem_ctrl.priorityMinLatency       0.000000018750                       # per QoS priority minimum request to response latency (s)
system.mem_ctrl.priorityMaxLatency       0.002849326750                       # per QoS priority maximum request to response latency (s)
system.mem_ctrl.numReadWriteTurnArounds        146798                       # Number of turnarounds from READ to WRITE
system.mem_ctrl.numWriteReadTurnArounds        146798                       # Number of turnarounds from WRITE to READ
system.mem_ctrl.numStayReadState              9050798                       # Number of times bus staying in READ state
system.mem_ctrl.numStayWriteState             2430053                       # Number of times bus staying in WRITE state
system.mem_ctrl.readReqs                      2925856                       # Number of read requests accepted
system.mem_ctrl.writeReqs                     2574258                       # Number of write requests accepted
system.mem_ctrl.readBursts                    2925856                       # Number of controller read bursts, including those serviced by the write queue
system.mem_ctrl.writeBursts                   2574258                       # Number of controller write bursts, including those merged in the write queue
system.mem_ctrl.servicedByWrQ                     161                       # Number of controller read bursts serviced by the write queue
system.mem_ctrl.mergedWrBursts                      0                       # Number of controller write bursts merged with an existing one
system.mem_ctrl.neitherReadNorWriteReqs             0                       # Number of requests that are neither read nor write
system.mem_ctrl.avgRdQLen                        1.00                       # Average read queue length when enqueuing
system.mem_ctrl.avgWrQLen                       24.70                       # Average write queue length when enqueuing
system.mem_ctrl.numRdRetry                          0                       # Number of times read queue was full causing retry
system.mem_ctrl.numWrRetry                          0                       # Number of times write queue was full causing retry
system.mem_ctrl.readPktSize::0                      0                       # Read request sizes (log2)
system.mem_ctrl.readPktSize::1                      0                       # Read request sizes (log2)
system.mem_ctrl.readPktSize::2                      0                       # Read request sizes (log2)
system.mem_ctrl.readPktSize::3                      0                       # Read request sizes (log2)
system.mem_ctrl.readPktSize::4                      0                       # Read request sizes (log2)
system.mem_ctrl.readPktSize::5                      0                       # Read request sizes (log2)
system.mem_ctrl.readPktSize::6                2925856                       # Read request sizes (log2)
system.mem_ctrl.writePktSize::0                     0                       # Write request sizes (log2)
system.mem_ctrl.writePktSize::1                     0                       # Write request sizes (log2)
system.mem_ctrl.writePktSize::2                     0                       # Write request sizes (log2)
system.mem_ctrl.writePktSize::3                     0                       # Write request sizes (log2)
system.mem_ctrl.writePktSize::4                     0                       # Write request sizes (log2)
system.mem_ctrl.writePktSize::5                     0                       # Write request sizes (log2)
system.mem_ctrl.writePktSize::6               2574258                       # Write request sizes (log2)
system.mem_ctrl.rdQLenPdf::0                  2925692                       # What read queue length does an incoming req see
system.mem_ctrl.rdQLenPdf::1                        3                       # What read queue length does an incoming req see
system.mem_ctrl.rdQLenPdf::2                        0                       # What read queue length does an incoming req see
system.mem_ctrl.rdQLenPdf::3                        0                       # What read queue length does an incoming req see
system.mem_ctrl.rdQLenPdf::4                        0                       # What read queue length does an incoming req see
system.mem_ctrl.rdQLenPdf::5                        0                       # What read queue length does an incoming req see
system.mem_ctrl.rdQLenPdf::6                        0                       # What read queue length does an incoming req see
system.mem_ctrl.rdQLenPdf::7                        0                       # What read queue length does an incoming req see
system.mem_ctrl.rdQLenPdf::8                        0                       # What read queue length does an incoming req see
system.mem_ctrl.rdQLenPdf::9                        0                       # What read queue length does an incoming req see
system.mem_ctrl.rdQLenPdf::10                       0                       # What read queue length does an incoming req see
system.mem_ctrl.rdQLenPdf::11                       0                       # What read queue length does an incoming req see
system.mem_ctrl.rdQLenPdf::12                       0                       # What read queue length does an incoming req see
system.mem_ctrl.rdQLenPdf::13                       0                       # What read queue length does an incoming req see
system.mem_ctrl.rdQLenPdf::14                       0                       # What read queue length does an incoming req see
system.mem_ctrl.rdQLenPdf::15                       0                       # What read queue length does an incoming req see
system.mem_ctrl.rdQLenPdf::16                       0                       # What read queue length does an incoming req see
system.mem_ctrl.rdQLenPdf::17                       0                       # What read queue length does an incoming req see
system.mem_ctrl.rdQLenPdf::18                       0                       # What read queue length does an incoming req see
system.mem_ctrl.rdQLenPdf::19                       0                       # What read queue length does an incoming req see
system.mem_ctrl.rdQLenPdf::20                       0                       # What read queue length does an incoming req see
system.mem_ctrl.rdQLenPdf::21                       0                       # What read queue length does an incoming req see
system.mem_ctrl.rdQLenPdf::22                       0                       # What read queue length does an incoming req see
system.mem_ctrl.rdQLenPdf::23                       0                       # What read queue length does an incoming req see
system.mem_ctrl.rdQLenPdf::24                       0                       # What read queue length does an incoming req see
system.mem_ctrl.rdQLenPdf::25                       0                       # What read queue length does an incoming req see
system.mem_ctrl.rdQLenPdf::26                       0                       # What read queue length does an incoming req see
system.mem_ctrl.rdQLenPdf::27                       0                       # What read queue length does an incoming req see
system.mem_ctrl.rdQLenPdf::28                       0                       # What read queue length does an incoming req see
system.mem_ctrl.rdQLenPdf::29                       0                       # What read queue length does an incoming req see
system.mem_ctrl.rdQLenPdf::30                       0                       # What read queue length does an incoming req see
system.mem_ctrl.rdQLenPdf::31                       0                       # What read queue length does an incoming req see
system.mem_ctrl.wrQLenPdf::0                        1                       # What write queue length does an incoming req see
system.mem_ctrl.wrQLenPdf::1                        1                       # What write queue length does an incoming req see
system.mem_ctrl.wrQLenPdf::2                        1                       # What write queue length does an incoming req see
system.mem_ctrl.wrQLenPdf::3                        1                       # What write queue length does an incoming req see
system.mem_ctrl.wrQLenPdf::4                        1                       # What write queue length does an incoming req see
system.mem_ctrl.wrQLenPdf::5                        1                       # What write queue length does an incoming req see
system.mem_ctrl.wrQLenPdf::6                        1                       # What write queue length does an incoming req see
system.mem_ctrl.wrQLenPdf::7                        1                       # What write queue length does an incoming req see
system.mem_ctrl.wrQLenPdf::8                        1                       # What write queue length does an incoming req see
system.mem_ctrl.wrQLenPdf::9                        1                       # What write queue length does an incoming req see
system.mem_ctrl.wrQLenPdf::10                       1                       # What write queue length does an incoming req see
system.mem_ctrl.wrQLenPdf::11                       1                       # What write queue length does an incoming req see
system.mem_ctrl.wrQLenPdf::12                       1                       # What write queue length does an incoming req see
system.mem_ctrl.wrQLenPdf::13                       1                       # What write queue length does an incoming req see
system.mem_ctrl.wrQLenPdf::14                       1                       # What write queue length does an incoming req see
system.mem_ctrl.wrQLenPdf::15                  111726                       # What write queue length does an incoming req see
system.mem_ctrl.wrQLenPdf::16                  112548                       # What write queue length does an incoming req see
system.mem_ctrl.wrQLenPdf::17                  146272                       # What write queue length does an incoming req see
system.mem_ctrl.wrQLenPdf::18                  146965                       # What write queue length does an incoming req see
system.mem_ctrl.wrQLenPdf::19                  147252                       # What write queue length does an incoming req see
system.mem_ctrl.wrQLenPdf::20                  146900                       # What write queue length does an incoming req see
system.mem_ctrl.wrQLenPdf::21                  147375                       # What write queue length does an incoming req see
system.mem_ctrl.wrQLenPdf::22                  147003                       # What write queue length does an incoming req see
system.mem_ctrl.wrQLenPdf::23                  146923                       # What write queue length does an incoming req see
system.mem_ctrl.wrQLenPdf::24                  146863                       # What write queue length does an incoming req see
system.mem_ctrl.wrQLenPdf::25                  146803                       # What write queue length does an incoming req see
system.mem_ctrl.wrQLenPdf::26                  146802                       # What write queue length does an incoming req see
system.mem_ctrl.wrQLenPdf::27                  146801                       # What write queue length does an incoming req see
system.mem_ctrl.wrQLenPdf::28                  146801                       # What write queue length does an incoming req see
system.mem_ctrl.wrQLenPdf::29                  146799                       # What write queue length does an incoming req see
system.mem_ctrl.wrQLenPdf::30                  146799                       # What write queue length does an incoming req see
system.mem_ctrl.wrQLenPdf::31                  146798                       # What write queue length does an incoming req see
system.mem_ctrl.wrQLenPdf::32                  146798                       # What write queue length does an incoming req see
system.mem_ctrl.wrQLenPdf::33                      15                       # What write queue length does an incoming req see
system.mem_ctrl.wrQLenPdf::34                       0                       # What write queue length does an incoming req see
system.mem_ctrl.wrQLenPdf::35                       0                       # What write queue length does an incoming req see
system.mem_ctrl.wrQLenPdf::36                       0                       # What write queue length does an incoming req see
system.mem_ctrl.wrQLenPdf::37                       0                       # What write queue length does an incoming req see
system.mem_ctrl.wrQLenPdf::38                       0                       # What write queue length does an incoming req see
system.mem_ctrl.wrQLenPdf::39                       0                       # What write queue length does an incoming req see
system.mem_ctrl.wrQLenPdf::40                       0                       # What write queue length does an incoming req see
system.mem_ctrl.wrQLenPdf::41                       0                       # What write queue length does an incoming req see
system.mem_ctrl.wrQLenPdf::42                       0                       # What write queue length does an incoming req see
system.mem_ctrl.wrQLenPdf::43                       0                       # What write queue length does an incoming req see
system.mem_ctrl.wrQLenPdf::44                       0                       # What write queue length does an incoming req see
system.mem_ctrl.wrQLenPdf::45                       0                       # What write queue length does an incoming req see
system.mem_ctrl.wrQLenPdf::46                       0                       # What write queue length does an incoming req see
system.mem_ctrl.wrQLenPdf::47                       0                       # What write queue length does an incoming req see
system.mem_ctrl.wrQLenPdf::48                       0                       # What write queue length does an incoming req see
system.mem_ctrl.wrQLenPdf::49                       0                       # What write queue length does an incoming req see
system.mem_ctrl.wrQLenPdf::50                       0                       # What write queue length does an incoming req see
system.mem_ctrl.wrQLenPdf::51                       0                       # What write queue length does an incoming req see
system.mem_ctrl.wrQLenPdf::52                       0                       # What write queue length does an incoming req see
system.mem_ctrl.wrQLenPdf::53                       0                       # What write queue length does an incoming req see
system.mem_ctrl.wrQLenPdf::54                       0                       # What write queue length does an incoming req see
system.mem_ctrl.wrQLenPdf::55                       0                       # What write queue length does an incoming req see
system.mem_ctrl.wrQLenPdf::56                       0                       # What write queue length does an incoming req see
system.mem_ctrl.wrQLenPdf::57                       0                       # What write queue length does an incoming req see
system.mem_ctrl.wrQLenPdf::58                       0                       # What write queue length does an incoming req see
system.mem_ctrl.wrQLenPdf::59                       0                       # What write queue length does an incoming req see
system.mem_ctrl.wrQLenPdf::60                       0                       # What write queue length does an incoming req see
system.mem_ctrl.wrQLenPdf::61                       0                       # What write queue length does an incoming req see
system.mem_ctrl.wrQLenPdf::62                       0                       # What write queue length does an incoming req see
system.mem_ctrl.wrQLenPdf::63                       0                       # What write queue length does an incoming req see
system.mem_ctrl.rdPerTurnAround::samples       146798                       # Reads before turning the bus around for writes
system.mem_ctrl.rdPerTurnAround::mean       19.929972                       # Reads before turning the bus around for writes
system.mem_ctrl.rdPerTurnAround::gmean      18.927028                       # Reads before turning the bus around for writes
system.mem_ctrl.rdPerTurnAround::stdev      17.346561                       # Reads before turning the bus around for writes
system.mem_ctrl.rdPerTurnAround::0-255         146724     99.95%     99.95% # Reads before turning the bus around for writes
system.mem_ctrl.rdPerTurnAround::256-511           73      0.05%    100.00% # Reads before turning the bus around for writes
system.mem_ctrl.rdPerTurnAround::4608-4863            1      0.00%    100.00% # Reads before turning the bus around for writes
system.mem_ctrl.rdPerTurnAround::total         146798                       # Reads before turning the bus around for writes
system.mem_ctrl.wrPerTurnAround::samples       146798                       # Writes before turning the bus around for reads
system.mem_ctrl.wrPerTurnAround::mean       17.535845                       # Writes before turning the bus around for reads
system.mem_ctrl.wrPerTurnAround::gmean      17.514003                       # Writes before turning the bus around for reads
system.mem_ctrl.wrPerTurnAround::stdev       0.857786                       # Writes before turning the bus around for reads
system.mem_ctrl.wrPerTurnAround::16             34404     23.44%     23.44% # Writes before turning the bus around for reads
system.mem_ctrl.wrPerTurnAround::17               662      0.45%     23.89% # Writes before turning the bus around for reads
system.mem_ctrl.wrPerTurnAround::18            110412     75.21%     99.10% # Writes before turning the bus around for reads
system.mem_ctrl.wrPerTurnAround::19              1308      0.89%     99.99% # Writes before turning the bus around for reads
system.mem_ctrl.wrPerTurnAround::20                11      0.01%    100.00% # Writes before turning the bus around for reads
system.mem_ctrl.wrPerTurnAround::21                 1      0.00%    100.00% # Writes before turning the bus around for reads
system.mem_ctrl.wrPerTurnAround::total         146798                       # Writes before turning the bus around for reads
system.mem_ctrl.bytesReadWrQ                    10304                       # Total number of bytes read from write queue
system.mem_ctrl.bytesReadSys                187254784                       # Total read bytes from the system interface side
system.mem_ctrl.bytesWrittenSys             164752512                       # Total written bytes from the system interface side
system.mem_ctrl.avgRdBWSys                      71.62                       # Average system read bandwidth in MiByte/s
system.mem_ctrl.avgWrBWSys                      63.01                       # Average system write bandwidth in MiByte/s
system.mem_ctrl.totGap                   2614729363000                       # Total gap between requests
system.mem_ctrl.avgGap                      475395.49                       # Average gap between requests
[...]
system.mem_ctrl.requestorReadRate::.cpu.data 71486293.135125756264                       # Per-requestor bytes read from memory rate (Bytes/sec)
system.mem_ctrl.requestorWriteRate::.writebacks 63008634.207059122622                       # Per-requestor bytes write to memory rate (Bytes/sec)
system.mem_ctrl.requestorReadAccesses::.cpu.inst         5112                       # Per-requestor read serviced memory accesses
system.mem_ctrl.requestorReadAccesses::.cpu.data      2920744                       # Per-requestor read serviced memory accesses
system.mem_ctrl.requestorWriteAccesses::.writebacks      2574258                       # Per-requestor write serviced memory accesses
system.mem_ctrl.requestorReadTotalLat::.cpu.inst    152603500                       # Per-requestor read total memory access latency
system.mem_ctrl.requestorReadTotalLat::.cpu.data  79737337750                       # Per-requestor read total memory access latency
system.mem_ctrl.requestorWriteTotalLat::.writebacks 61965790163250                       # Per-requestor write total memory access latency
system.mem_ctrl.requestorReadAvgLat::.cpu.inst     29852.01                       # Per-requestor read average memory access latency
system.mem_ctrl.requestorReadAvgLat::.cpu.data     27300.35                       # Per-requestor read average memory access latency
system.mem_ctrl.requestorWriteAvgLat::.writebacks  24071320.81                       # Per-requestor write average memory access latency
system.mem_ctrl.dram.bytes_read::.cpu.inst       327168                       # Number of bytes read from this memory
system.mem_ctrl.dram.bytes_read::.cpu.data    186927616                       # Number of bytes read from this memory
system.mem_ctrl.dram.bytes_read::total      187254784                       # Number of bytes read from this memory
system.mem_ctrl.dram.bytes_inst_read::.cpu.inst       327168                       # Number of instructions bytes read from this memory
system.mem_ctrl.dram.bytes_inst_read::total       327168                       # Number of instructions bytes read from this memory
system.mem_ctrl.dram.bytes_written::.writebacks    164752512                       # Number of bytes written to this memory
system.mem_ctrl.dram.bytes_written::total    164752512                       # Number of bytes written to this memory
system.mem_ctrl.dram.num_reads::.cpu.inst         5112                       # Number of read requests responded to by this memory
system.mem_ctrl.dram.num_reads::.cpu.data      2920744                       # Number of read requests responded to by this memory
system.mem_ctrl.dram.num_reads::total         2925856                       # Number of read requests responded to by this memory
system.mem_ctrl.dram.num_writes::.writebacks      2574258                       # Number of write requests responded to by this memory
system.mem_ctrl.dram.num_writes::total        2574258                       # Number of write requests responded to by this memory
system.mem_ctrl.dram.bw_read::.cpu.inst        125125                       # Total read bandwidth from this memory (bytes/s)
system.mem_ctrl.dram.bw_read::.cpu.data      71490234                       # Total read bandwidth from this memory (bytes/s)
system.mem_ctrl.dram.bw_read::total          71615359                       # Total read bandwidth from this memory (bytes/s)
system.mem_ctrl.dram.bw_inst_read::.cpu.inst       125125                       # Instruction read bandwidth from this memory (bytes/s)
system.mem_ctrl.dram.bw_inst_read::total       125125                       # Instruction read bandwidth from this memory (bytes/s)
system.mem_ctrl.dram.bw_write::.writebacks     63009393                       # Write bandwidth from this memory (bytes/s)
system.mem_ctrl.dram.bw_write::total         63009393                       # Write bandwidth from this memory (bytes/s)
system.mem_ctrl.dram.bw_total::.writebacks     63009393                       # Total bandwidth to/from this memory (bytes/s)
system.mem_ctrl.dram.bw_total::.cpu.inst       125125                       # Total bandwidth to/from this memory (bytes/s)
system.mem_ctrl.dram.bw_total::.cpu.data     71490234                       # Total bandwidth to/from this memory (bytes/s)
system.mem_ctrl.dram.bw_total::total        134624752                       # Total bandwidth to/from this memory (bytes/s)
system.mem_ctrl.dram.readBursts               2925695                       # Number of DRAM read bursts
system.mem_ctrl.dram.writeBursts              2574227                       # Number of DRAM write bursts
system.mem_ctrl.dram.perBankRdBursts::0        184160                       # Per bank write bursts
system.mem_ctrl.dram.perBankRdBursts::1        184084                       # Per bank write bursts
system.mem_ctrl.dram.perBankRdBursts::2        183802                       # Per bank write bursts
system.mem_ctrl.dram.perBankRdBursts::3        183290                       # Per bank write bursts
system.mem_ctrl.dram.perBankRdBursts::4        184063                       # Per bank write bursts
system.mem_ctrl.dram.perBankRdBursts::5        182500                       # Per bank write bursts
system.mem_ctrl.dram.perBankRdBursts::6        182392                       # Per bank write bursts
system.mem_ctrl.dram.perBankRdBursts::7        182632                       # Per bank write bursts
system.mem_ctrl.dram.perBankRdBursts::8        182056                       # Per bank write bursts
system.mem_ctrl.dram.perBankRdBursts::9        181332                       # Per bank write bursts
system.mem_ctrl.dram.perBankRdBursts::10       181541                       # Per bank write bursts
system.mem_ctrl.dram.perBankRdBursts::11       181628                       # Per bank write bursts
system.mem_ctrl.dram.perBankRdBursts::12       181189                       # Per bank write bursts
system.mem_ctrl.dram.perBankRdBursts::13       182750                       # Per bank write bursts
system.mem_ctrl.dram.perBankRdBursts::14       184121                       # Per bank write bursts
system.mem_ctrl.dram.perBankRdBursts::15       184155                       # Per bank write bursts
system.mem_ctrl.dram.perBankWrBursts::0        161601                       # Per bank write bursts
system.mem_ctrl.dram.perBankWrBursts::1        161535                       # Per bank write bursts
system.mem_ctrl.dram.perBankWrBursts::2        161552                       # Per bank write bursts
system.mem_ctrl.dram.perBankWrBursts::3        161542                       # Per bank write bursts
system.mem_ctrl.dram.perBankWrBursts::4        162267                       # Per bank write bursts
system.mem_ctrl.dram.perBankWrBursts::5        160987                       # Per bank write bursts
system.mem_ctrl.dram.perBankWrBursts::6        160741                       # Per bank write bursts
system.mem_ctrl.dram.perBankWrBursts::7        160748                       # Per bank write bursts
system.mem_ctrl.dram.perBankWrBursts::8        160533                       # Per bank write bursts
system.mem_ctrl.dram.perBankWrBursts::9        159622                       # Per bank write bursts
system.mem_ctrl.dram.perBankWrBursts::10       159665                       # Per bank write bursts
system.mem_ctrl.dram.perBankWrBursts::11       159611                       # Per bank write bursts
system.mem_ctrl.dram.perBankWrBursts::12       159604                       # Per bank write bursts
system.mem_ctrl.dram.perBankWrBursts::13       161000                       # Per bank write bursts
system.mem_ctrl.dram.perBankWrBursts::14       161609                       # Per bank write bursts
system.mem_ctrl.dram.perBankWrBursts::15       161610                       # Per bank write bursts
system.mem_ctrl.dram.totQLat              25033160000                       # Total ticks spent queuing
system.mem_ctrl.dram.totBusLat            14628475000                       # Total ticks spent in databus transfers
system.mem_ctrl.dram.totMemAccLat         79889941250                       # Total ticks spent from burst creation until serviced by the DRAM
system.mem_ctrl.dram.avgQLat                  8556.31                       # Average queueing delay per DRAM burst
system.mem_ctrl.dram.avgBusLat                5000.00                       # Average bus latency per DRAM burst
system.mem_ctrl.dram.avgMemAccLat            27306.31                       # Average memory access latency per DRAM burst
system.mem_ctrl.dram.readRowHits              2480783                       # Number of row buffer hits during reads
system.mem_ctrl.dram.writeRowHits             2225396                       # Number of row buffer hits during writes
system.mem_ctrl.dram.readRowHitRate             84.79                       # Row buffer hit rate for reads
system.mem_ctrl.dram.writeRowHitRate            86.45                       # Row buffer hit rate for writes
system.mem_ctrl.dram.bytesPerActivate::samples       793735                       # Bytes accessed per row activation
system.mem_ctrl.dram.bytesPerActivate::mean   443.464884                       # Bytes accessed per row activation
system.mem_ctrl.dram.bytesPerActivate::gmean   297.668461                       # Bytes accessed per row activation
system.mem_ctrl.dram.bytesPerActivate::stdev   340.591973                       # Bytes accessed per row activation
system.mem_ctrl.dram.bytesPerActivate::0-127       152772     19.25%     19.25% # Bytes accessed per row activation
system.mem_ctrl.dram.bytesPerActivate::128-255       144530     18.21%     37.46% # Bytes accessed per row activation
system.mem_ctrl.dram.bytesPerActivate::256-383        81219     10.23%     47.69% # Bytes accessed per row activation
system.mem_ctrl.dram.bytesPerActivate::384-511        80244     10.11%     57.80% # Bytes accessed per row activation
system.mem_ctrl.dram.bytesPerActivate::512-639       114868     14.47%     72.27% # Bytes accessed per row activation
system.mem_ctrl.dram.bytesPerActivate::640-767        37691      4.75%     77.02% # Bytes accessed per row activation
system.mem_ctrl.dram.bytesPerActivate::768-895        30295      3.82%     80.84% # Bytes accessed per row activation
system.mem_ctrl.dram.bytesPerActivate::896-1023        26558      3.35%     84.18% # Bytes accessed per row activation
system.mem_ctrl.dram.bytesPerActivate::1024-1151       125558     15.82%    100.00% # Bytes accessed per row activation
system.mem_ctrl.dram.bytesPerActivate::total       793735                       # Bytes accessed per row activation
system.mem_ctrl.dram.bytesRead              187244480                       # Total number of bytes read from DRAM
system.mem_ctrl.dram.bytesWritten           164750528                       # Total number of bytes written to DRAM
system.mem_ctrl.dram.avgRdBW                71.611418                       # Average DRAM read bandwidth in MiBytes/s
system.mem_ctrl.dram.avgWrBW                63.008634                       # Average DRAM write bandwidth in MiBytes/s
system.mem_ctrl.dram.peakBW                  12800.00                       # Theoretical peak bandwidth in MiByte/s
system.mem_ctrl.dram.busUtil                     1.05                       # Data bus utilization in percentage
system.mem_ctrl.dram.busUtilRead                 0.56                       # Data bus utilization in percentage for reads
system.mem_ctrl.dram.busUtilWrite                0.49                       # Data bus utilization in percentage for writes
system.mem_ctrl.dram.pageHitRate                85.57                       # Row buffer hit rate, read and write combined
system.mem_ctrl.dram.power_state.pwrStateResidencyTicks::UNDEFINED 2614729395000                       # Cumulative time (in ticks) in various power states
system.mem_ctrl.dram.rank0.actEnergy       2822948940                       # Energy for activate commands per rank (pJ)
system.mem_ctrl.dram.rank0.preEnergy       1500417765                       # Energy for precharge commands per rank (pJ)
system.mem_ctrl.dram.rank0.readEnergy     10473830220                       # Energy for read commands per rank (pJ)
system.mem_ctrl.dram.rank0.writeEnergy     6738879060                       # Energy for write commands per rank (pJ)
system.mem_ctrl.dram.rank0.refreshEnergy 206404102320.000031                       # Energy for refresh commands per rank (pJ)
system.mem_ctrl.dram.rank0.actBackEnergy 317638336800                       # Energy for active background per rank (pJ)
system.mem_ctrl.dram.rank0.preBackEnergy 736571172480                       # Energy for precharge background per rank (pJ)
system.mem_ctrl.dram.rank0.actPowerDownEnergy            0                       # Energy for active power-down per rank (pJ)
system.mem_ctrl.dram.rank0.prePowerDownEnergy            0                       # Energy for precharge power-down per rank (pJ)
system.mem_ctrl.dram.rank0.selfRefreshEnergy            0                       # Energy for self refresh per rank (pJ)
system.mem_ctrl.dram.rank0.totalEnergy   1282149687585                       # Total energy per rank (pJ)
system.mem_ctrl.dram.rank0.averagePower    490.356551                       # Core power per rank (mW)
system.mem_ctrl.dram.rank0.totalIdleTime            0                       # Total Idle time Per DRAM Rank
system.mem_ctrl.dram.rank0.pwrStateTime::IDLE 1911548158500                       # Time in different power states
system.mem_ctrl.dram.rank0.pwrStateTime::REF  87311380000                       # Time in different power states
system.mem_ctrl.dram.rank0.pwrStateTime::SREF            0                       # Time in different power states
system.mem_ctrl.dram.rank0.pwrStateTime::PRE_PDN            0                       # Time in different power states
system.mem_ctrl.dram.rank0.pwrStateTime::ACT 615869856500                       # Time in different power states
system.mem_ctrl.dram.rank0.pwrStateTime::ACT_PDN            0                       # Time in different power states
system.mem_ctrl.dram.rank1.actEnergy       2844376080                       # Energy for activate commands per rank (pJ)
system.mem_ctrl.dram.rank1.preEnergy       1511806560                       # Energy for precharge commands per rank (pJ)
system.mem_ctrl.dram.rank1.readEnergy     10415632080                       # Energy for read commands per rank (pJ)
system.mem_ctrl.dram.rank1.writeEnergy     6698585880                       # Energy for write commands per rank (pJ)
system.mem_ctrl.dram.rank1.refreshEnergy 206404102320.000031                       # Energy for refresh commands per rank (pJ)
system.mem_ctrl.dram.rank1.actBackEnergy 316762794000                       # Energy for active background per rank (pJ)
system.mem_ctrl.dram.rank1.preBackEnergy 737308471680                       # Energy for precharge background per rank (pJ)
system.mem_ctrl.dram.rank1.actPowerDownEnergy            0                       # Energy for active power-down per rank (pJ)
system.mem_ctrl.dram.rank1.prePowerDownEnergy            0                       # Energy for precharge power-down per rank (pJ)
system.mem_ctrl.dram.rank1.selfRefreshEnergy            0                       # Energy for self refresh per rank (pJ)
system.mem_ctrl.dram.rank1.totalEnergy   1281945768600                       # Total energy per rank (pJ)
system.mem_ctrl.dram.rank1.averagePower    490.278562                       # Core power per rank (mW)
system.mem_ctrl.dram.rank1.totalIdleTime            0                       # Total Idle time Per DRAM Rank
system.mem_ctrl.dram.rank1.pwrStateTime::IDLE 1913493747250                       # Time in different power states
system.mem_ctrl.dram.rank1.pwrStateTime::REF  87311380000                       # Time in different power states
system.mem_ctrl.dram.rank1.pwrStateTime::SREF            0                       # Time in different power states
system.mem_ctrl.dram.rank1.pwrStateTime::PRE_PDN            0                       # Time in different power states
system.mem_ctrl.dram.rank1.pwrStateTime::ACT 613924267750                       # Time in different power states
system.mem_ctrl.dram.rank1.pwrStateTime::ACT_PDN            0                       # Time in different power states
system.mem_ctrl.power_state.pwrStateResidencyTicks::UNDEFINED 2614729395000                       # Cumulative time (in ticks) in various power states
system.membus.trans_dist::ReadResp            2203156                       # Transaction distribution
system.membus.trans_dist::WritebackDirty      2574258                       # Transaction distribution
system.membus.trans_dist::CleanEvict           347459                       # Transaction distribution
system.membus.trans_dist::ReadExReq            722700                       # Transaction distribution
system.membus.trans_dist::ReadExResp           722700                       # Transaction distribution
system.membus.trans_dist::ReadSharedReq       2203156                       # Transaction distribution
system.membus.pkt_count_system.l2cache.mem_side_port::system.mem_ctrl.port      8773429                       # Packet count per connected requestor and responder (bytes)
system.membus.pkt_count_system.l2cache.mem_side_port::total      8773429                       # Packet count per connected requestor and responder (bytes)
system.membus.pkt_count::total                8773429                       # Packet count per connected requestor and responder (bytes)
system.membus.pkt_size_system.l2cache.mem_side_port::system.mem_ctrl.port    352007296                       # Cumulative packet size per connected requestor and responder (bytes)
system.membus.pkt_size_system.l2cache.mem_side_port::total    352007296                       # Cumulative packet size per connected requestor and responder (bytes)
system.membus.pkt_size::total               352007296                       # Cumulative packet size per connected requestor and responder (bytes)
system.membus.snoops                                0                       # Total snoops (count)
system.membus.snoopTraffic                          0                       # Total snoop traffic (bytes)
system.membus.snoop_fanout::samples           2925856                       # Request fanout histogram
system.membus.snoop_fanout::mean                    0                       # Request fanout histogram
system.membus.snoop_fanout::stdev                   0                       # Request fanout histogram
system.membus.snoop_fanout::underflows              0      0.00%      0.00% # Request fanout histogram
system.membus.snoop_fanout::0                 2925856    100.00%    100.00% # Request fanout histogram
system.membus.snoop_fanout::1                       0      0.00%    100.00% # Request fanout histogram
system.membus.snoop_fanout::overflows               0      0.00%    100.00% # Request fanout histogram
system.membus.snoop_fanout::min_value               0                       # Request fanout histogram
system.membus.snoop_fanout::max_value               0                       # Request fanout histogram
system.membus.snoop_fanout::total             2925856                       # Request fanout histogram
system.membus.power_state.pwrStateResidencyTicks::UNDEFINED 2614729395000                       # Cumulative time (in ticks) in various power states
system.membus.reqLayer2.occupancy         16144605000                       # Layer occupancy (ticks)
system.membus.reqLayer2.utilization               0.6                       # Layer utilization (%)
system.membus.respLayer0.occupancy        15496421250                       # Layer occupancy (ticks)
system.membus.respLayer0.utilization              0.6                       # Layer utilization (%)

---------- End Simulation Statistics   ----------
