
---------- Begin Simulation Statistics ----------
final_tick                               103254569000                       # Number of ticks from beginning of simulation (restored from checkpoints and never reset)
host_inst_rate                                 398325                       # Simulator instruction rate (inst/s)
host_mem_usage                                 671056                       # Number of bytes of host memory used
host_op_rate                                   749204                       # Simulator op (including micro ops) rate (op/s)
host_seconds                                    54.51                       # Real time elapsed on the host
host_tick_rate                             1894280402                       # Simulator tick rate (ticks/s)
sim_freq                                 1000000000000                       # Frequency of simulated ticks
sim_insts                                    21712044                       # Number of instructions simulated
sim_ops                                      40838015                       # Number of ops (including micro ops) simulated
sim_seconds                                  0.103255                       # Number of seconds simulated
sim_ticks                                103254569000                       # Number of ticks simulated
system.cpu.Branches                           1689467                       # Number of branches fetched
system.cpu.committedInsts                    21712044                       # Number of instructions committed
system.cpu.committedOps                      40838015                       # Number of ops (including micro ops) committed
system.cpu.idle_fraction                     0.000000                       # Percentage of idle cycles
system.cpu.not_idle_fraction                 1.000000                       # Percentage of non-idle cycles
system.cpu.numCycles                        103254569                       # number of cpu cycles simulated
system.cpu.numWorkItemsCompleted                    0                       # number of work items this cpu completed
system.cpu.numWorkItemsStarted                      0                       # number of work items this cpu started
system.cpu.num_busy_cycles               103254568.999000                       # Number of busy cycles
system.cpu.num_cc_register_reads              9199929                       # number of times the CC registers were read
system.cpu.num_cc_register_writes             7310812                       # number of times the CC registers were written
system.cpu.num_conditional_control_insts      1625142                       # number of instructions that are conditional controls
system.cpu.num_fp_alu_accesses               28213425                       # Number of float alu accesses
system.cpu.num_fp_insts                      28213425                       # number of float instructions
system.cpu.num_fp_register_reads             42716798                       # number of times the floating registers were read
system.cpu.num_fp_register_writes            25063166                       # number of times the floating registers were written
system.cpu.num_func_calls                       38520                       # number of times a function call or return occured
system.cpu.num_idle_cycles                   0.001000                       # Number of idle cycles
system.cpu.num_int_alu_accesses              26037866                       # Number of integer alu accesses
system.cpu.num_int_insts                     26037866                       # number of integer instructions
system.cpu.num_int_register_reads            61735381                       # number of times the integer registers were read
system.cpu.num_int_register_writes           10538253                       # number of times the integer registers were written
system.cpu.num_load_insts                    11754447                       # Number of load instructions
system.cpu.num_mem_refs                      15047406                       # number of memory refs
system.cpu.num_store_insts                    3292959                       # Number of store instructions
system.cpu.num_vec_alu_accesses                     0                       # Number of vector alu accesses
system.cpu.num_vec_insts                            0                       # number of vector instructions
system.cpu.num_vec_register_reads                   0                       # number of times the vector registers were read
system.cpu.num_vec_register_writes                  0                       # number of times the vector registers were written
system.cpu.op_class::No_OpClass                 82074      0.20%      0.20% # Class of executed instruction
system.cpu.op_class::IntAlu                  13296535     32.56%     32.76% # Class of executed instruction
system.cpu.op_class::IntMult                    80138      0.20%     32.96% # Class of executed instruction
system.cpu.op_class::IntDiv                       280      0.00%     32.96% # Class of executed instruction
system.cpu.op_class::FloatAdd                  374599      0.92%     33.87% # Class of executed instruction
system.cpu.op_class::FloatCmp                       0      0.00%     33.87% # Class of executed instruction
system.cpu.op_class::FloatCvt                       0      0.00%     33.87% # Class of executed instruction
system.cpu.op_class::FloatMult                      0      0.00%     33.87% # Class of executed instruction
system.cpu.op_class::FloatMultAcc                   0      0.00%     33.87% # Class of executed instruction
system.cpu.op_class::FloatDiv                       0      0.00%     33.87% # Class of executed instruction
system.cpu.op_class::FloatMisc                      0      0.00%     33.87% # Class of executed instruction
system.cpu.op_class::FloatSqrt                      0      0.00%     33.87% # Class of executed instruction
system.cpu.op_class::SimdAdd                       24      0.00%     33.87% # Class of executed instruction
system.cpu.op_class::SimdAddAcc                     0      0.00%     33.87% # Class of executed instruction
system.cpu.op_class::SimdAlu                   398960      0.98%     34.85% # Class of executed instruction
system.cpu.op_class::SimdCmp                       24      0.00%     34.85% # Class of executed instruction
system.cpu.op_class::SimdCvt                      730      0.00%     34.85% # Class of executed instruction
system.cpu.op_class::SimdMisc                  147076      0.36%     35.21% # Class of executed instruction
system.cpu.op_class::SimdMult                       0      0.00%     35.21% # Class of executed instruction
system.cpu.op_class::SimdMultAcc                    0      0.00%     35.21% # Class of executed instruction
system.cpu.op_class::SimdShift                      0      0.00%     35.21% # Class of executed instruction
system.cpu.op_class::SimdShiftAcc                   0      0.00%     35.21% # Class of executed instruction
system.cpu.op_class::SimdDiv                        0      0.00%     35.21% # Class of executed instruction
system.cpu.op_class::SimdSqrt                       0      0.00%     35.21% # Class of executed instruction
system.cpu.op_class::SimdFloatAdd             8763369     21.46%     56.67% # Class of executed instruction
system.cpu.op_class::SimdFloatAlu                   0      0.00%     56.67% # Class of executed instruction
system.cpu.op_class::SimdFloatCmp                   0      0.00%     56.67% # Class of executed instruction
system.cpu.op_class::SimdFloatCvt              340277      0.83%     57.51% # Class of executed instruction
system.cpu.op_class::SimdFloatDiv                   6      0.00%     57.51% # Class of executed instruction
system.cpu.op_class::SimdFloatMisc                  0      0.00%     57.51% # Class of executed instruction
system.cpu.op_class::SimdFloatMult            2306615      5.65%     63.15% # Class of executed instruction
system.cpu.op_class::SimdFloatMultAcc               0      0.00%     63.15% # Class of executed instruction
system.cpu.op_class::SimdFloatSqrt                  4      0.00%     63.15% # Class of executed instruction
system.cpu.op_class::SimdReduceAdd                  0      0.00%     63.15% # Class of executed instruction
system.cpu.op_class::SimdReduceAlu                  0      0.00%     63.15% # Class of executed instruction
system.cpu.op_class::SimdReduceCmp                  0      0.00%     63.15% # Class of executed instruction
system.cpu.op_class::SimdFloatReduceAdd             0      0.00%     63.15% # Class of executed instruction
system.cpu.op_class::SimdFloatReduceCmp             0      0.00%     63.15% # Class of executed instruction
system.cpu.op_class::SimdAes                        0      0.00%     63.15% # Class of executed instruction
system.cpu.op_class::SimdAesMix                     0      0.00%     63.15% # Class of executed instruction
system.cpu.op_class::SimdSha1Hash                   0      0.00%     63.15% # Class of executed instruction
system.cpu.op_class::SimdSha1Hash2                  0      0.00%     63.15% # Class of executed instruction
system.cpu.op_class::SimdSha256Hash                 0      0.00%     63.15% # Class of executed instruction
system.cpu.op_class::SimdSha256Hash2                0      0.00%     63.15% # Class of executed instruction
system.cpu.op_class::SimdShaSigma2                  0      0.00%     63.15% # Class of executed instruction
system.cpu.op_class::SimdShaSigma3                  0      0.00%     63.15% # Class of executed instruction
system.cpu.op_class::SimdPredAlu                    0      0.00%     63.15% # Class of executed instruction
system.cpu.op_class::MemRead                  1222401      2.99%     66.15% # Class of executed instruction
system.cpu.op_class::MemWrite                  415987      1.02%     67.17% # Class of executed instruction
system.cpu.op_class::FloatMemRead            10532046     25.79%     92.96% # Class of executed instruction
system.cpu.op_class::FloatMemWrite            2876972      7.04%    100.00% # Class of executed instruction
system.cpu.op_class::IprAccess                      0      0.00%    100.00% # Class of executed instruction
system.cpu.op_class::InstPrefetch                   0      0.00%    100.00% # Class of executed instruction
system.cpu.op_class::total                   40838117                       # Class of executed instruction
system.cpu.workload.numSyscalls                    77                       # Number of system calls
system.l2bus.snoop_filter.hit_multi_requests            0                       # Number of requests hitting in the snoop filter with multiple (>1) holders of the requested data.
system.l2bus.snoop_filter.hit_multi_snoops            0                       # Number of snoops hitting in the snoop filter with multiple (>1) holders of the requested data.
system.l2bus.snoop_filter.hit_single_requests       399663                       # Number of requests hitting in the snoop filter with a single holder of the requested data.
system.l2bus.snoop_filter.hit_single_snoops         1368                       # Number of snoops hitting in the snoop filter with a single holder of the requested data.
system.l2bus.snoop_filter.tot_requests         800606                       # Total number of requests made to the snoop filter.
system.l2bus.snoop_filter.tot_snoops             1368                       # Total number of snoops made to the snoop filter.
system.membus.snoop_filter.hit_multi_requests            0                       # Number of requests hitting in the snoop filter with multiple (>1) holders of the requested data.
system.membus.snoop_filter.hit_multi_snoops            0                       # Number of snoops hitting in the snoop filter with multiple (>1) holders of the requested data.
system.membus.snoop_filter.hit_single_requests        14943                       # Number of requests hitting in the snoop filter with a single holder of the requested data.
system.membus.snoop_filter.hit_single_snoops            0                       # Number of snoops hitting in the snoop filter with a single holder of the requested data.
system.membus.snoop_filter.tot_requests         46277                       # Total number of requests made to the snoop filter.
system.membus.snoop_filter.tot_snoops               0                       # Total number of snoops made to the snoop filter.
system.clk_domain.clock                          1000                       # Clock period in ticks
system.clk_domain.voltage_domain.voltage            1                       # Voltage in Volts
system.cpu.dcache.demand_hits::.cpu.data     14655300                       # number of demand (read+write) hits
system.cpu.dcache.demand_hits::total         14655300                       # number of demand (read+write) hits
system.cpu.dcache.overall_hits::.cpu.data     14655300                       # number of overall hits
system.cpu.dcache.overall_hits::total        14655300                       # number of overall hits
system.cpu.dcache.demand_misses::.cpu.data       392175                       # number of demand (read+write) misses
system.cpu.dcache.demand_misses::total         392175                       # number of demand (read+write) misses
system.cpu.dcache.overall_misses::.cpu.data       392175                       # number of overall misses
system.cpu.dcache.overall_misses::total        392175                       # number of overall misses
system.cpu.dcache.demand_miss_latency::.cpu.data  12309655000                       # number of demand (read+write) miss cycles
system.cpu.dcache.demand_miss_latency::total  12309655000                       # number of demand (read+write) miss cycles
system.cpu.dcache.overall_miss_latency::.cpu.data  12309655000                       # number of overall miss cycles
system.cpu.dcache.overall_miss_latency::total  12309655000                       # number of overall miss cycles
system.cpu.dcache.demand_accesses::.cpu.data     15047475                       # number of demand (read+write) accesses
system.cpu.dcache.demand_accesses::total     15047475                       # number of demand (read+write) accesses
system.cpu.dcache.overall_accesses::.cpu.data     15047475                       # number of overall (read+write) accesses
system.cpu.dcache.overall_accesses::total     15047475                       # number of overall (read+write) accesses
system.cpu.dcache.demand_miss_rate::.cpu.data     0.026063                       # miss rate for demand accesses
system.cpu.dcache.demand_miss_rate::total     0.026063                       # miss rate for demand accesses
system.cpu.dcache.overall_miss_rate::.cpu.data     0.026063                       # miss rate for overall accesses
system.cpu.dcache.overall_miss_rate::total     0.026063                       # miss rate for overall accesses
system.cpu.dcache.demand_avg_miss_latency::.cpu.data 31388.168547                       # average overall miss latency
system.cpu.dcache.demand_avg_miss_latency::total 31388.168547                       # average overall miss latency
system.cpu.dcache.overall_avg_miss_latency::.cpu.data 31388.168547                       # average overall miss latency
system.cpu.dcache.overall_avg_miss_latency::total 31388.168547                       # average overall miss latency
system.cpu.dcache.blocked_cycles::no_mshrs            0                       # number of cycles access was blocked
system.cpu.dcache.blocked_cycles::no_targets            0                       # number of cycles access was blocked
system.cpu.dcache.blocked::no_mshrs                 0                       # number of cycles access was blocked
system.cpu.dcache.blocked::no_targets               0                       # number of cycles access was blocked
system.cpu.dcache.avg_blocked_cycles::no_mshrs          nan                       # average number of cycles each access was blocked
system.cpu.dcache.avg_blocked_cycles::no_targets          nan                       # average number of cycles each access was blocked
system.cpu.dcache.writebacks::.writebacks       377220                       # number of writebacks
system.cpu.dcache.writebacks::total            377220                       # number of writebacks
system.cpu.dcache.demand_mshr_misses::.cpu.data       392175                       # number of demand (read+write) MSHR misses
system.cpu.dcache.demand_mshr_misses::total       392175                       # number of demand (read+write) MSHR misses
system.cpu.dcache.overall_mshr_misses::.cpu.data       392175                       # number of overall MSHR misses
system.cpu.dcache.overall_mshr_misses::total       392175                       # number of overall MSHR misses
system.cpu.dcache.demand_mshr_miss_latency::.cpu.data  11525305000                       # number of demand (read+write) MSHR miss cycles
system.cpu.dcache.demand_mshr_miss_latency::total  11525305000                       # number of demand (read+write) MSHR miss cycles
system.cpu.dcache.overall_mshr_miss_latency::.cpu.data  11525305000                       # number of overall MSHR miss cycles
system.cpu.dcache.overall_mshr_miss_latency::total  11525305000                       # number of overall MSHR miss cycles
system.cpu.dcache.demand_mshr_miss_rate::.cpu.data     0.026063                       # mshr miss rate for demand accesses
system.cpu.dcache.demand_mshr_miss_rate::total     0.026063                       # mshr miss rate for demand accesses
system.cpu.dcache.overall_mshr_miss_rate::.cpu.data     0.026063                       # mshr miss rate for overall accesses
system.cpu.dcache.overall_mshr_miss_rate::total     0.026063                       # mshr miss rate for overall accesses
system.cpu.dcache.demand_avg_mshr_miss_latency::.cpu.data 29388.168547                       # average overall mshr miss latency
system.cpu.dcache.demand_avg_mshr_miss_latency::total 29388.168547                       # average overall mshr miss latency
system.cpu.dcache.overall_avg_mshr_miss_latency::.cpu.data 29388.168547                       # average overall mshr miss latency
system.cpu.dcache.overall_avg_mshr_miss_latency::total 29388.168547                       # average overall mshr miss latency
system.cpu.dcache.replacements                 391151                       # number of replacements
system.cpu.dcache.ReadReq_hits::.cpu.data     11481477                       # number of ReadReq hits
system.cpu.dcache.ReadReq_hits::total        11481477                       # number of ReadReq hits
system.cpu.dcache.ReadReq_misses::.cpu.data       273021                       # number of ReadReq misses
system.cpu.dcache.ReadReq_misses::total        273021                       # number of ReadReq misses
system.cpu.dcache.ReadReq_miss_latency::.cpu.data   7652236000                       # number of ReadReq miss cycles
system.cpu.dcache.ReadReq_miss_latency::total   7652236000                       # number of ReadReq miss cycles
system.cpu.dcache.ReadReq_accesses::.cpu.data     11754498                       # number of ReadReq accesses(hits+misses)
system.cpu.dcache.ReadReq_accesses::total     11754498                       # number of ReadReq accesses(hits+misses)
system.cpu.dcache.ReadReq_miss_rate::.cpu.data     0.023227                       # miss rate for ReadReq accesses
system.cpu.dcache.ReadReq_miss_rate::total     0.023227                       # miss rate for ReadReq accesses
system.cpu.dcache.ReadReq_avg_miss_latency::.cpu.data 28028.012497                       # average ReadReq miss latency
system.cpu.dcache.ReadReq_avg_miss_latency::total 28028.012497                       # average ReadReq miss latency
system.cpu.dcache.ReadReq_mshr_misses::.cpu.data       273021                       # number of ReadReq MSHR misses
system.cpu.dcache.ReadReq_mshr_misses::total       273021                       # number of ReadReq MSHR misses
system.cpu.dcache.ReadReq_mshr_miss_latency::.cpu.data   7106194000                       # number of ReadReq MSHR miss cycles
system.cpu.dcache.ReadReq_mshr_miss_latency::total   7106194000                       # number of ReadReq MSHR miss cycles
system.cpu.dcache.ReadReq_mshr_miss_rate::.cpu.data     0.023227                       # mshr miss rate for ReadReq accesses
system.cpu.dcache.ReadReq_mshr_miss_rate::total     0.023227                       # mshr miss rate for ReadReq accesses
system.cpu.dcache.ReadReq_avg_mshr_miss_latency::.cpu.data 26028.012497                       # average ReadReq mshr miss latency
system.cpu.dcache.ReadReq_avg_mshr_miss_latency::total 26028.012497                       # average ReadReq mshr miss latency
system.cpu.dcache.WriteReq_hits::.cpu.data      3173823                       # number of WriteReq hits
system.cpu.dcache.WriteReq_hits::total        3173823                       # number of WriteReq hits
system.cpu.dcache.WriteReq_misses::.cpu.data       119154                       # number of WriteReq misses
system.cpu.dcache.WriteReq_misses::total       119154                       # number of WriteReq misses
system.cpu.dcache.WriteReq_miss_latency::.cpu.data   4657419000                       # number of WriteReq miss cycles
system.cpu.dcache.WriteReq_miss_latency::total   4657419000                       # number of WriteReq miss cycles
system.cpu.dcache.WriteReq_accesses::.cpu.data      3292977                       # number of WriteReq accesses(hits+misses)
system.cpu.dcache.WriteReq_accesses::total      3292977                       # number of WriteReq accesses(hits+misses)
system.cpu.dcache.WriteReq_miss_rate::.cpu.data     0.036184                       # miss rate for WriteReq accesses
system.cpu.dcache.WriteReq_miss_rate::total     0.036184                       # miss rate for WriteReq accesses
system.cpu.dcache.WriteReq_avg_miss_latency::.cpu.data 39087.391107                       # average WriteReq miss latency
system.cpu.dcache.WriteReq_avg_miss_latency::total 39087.391107                       # average WriteReq miss latency
system.cpu.dcache.WriteReq_mshr_misses::.cpu.data       119154                       # number of WriteReq MSHR misses
system.cpu.dcache.WriteReq_mshr_misses::total       119154                       # number of WriteReq MSHR misses
system.cpu.dcache.WriteReq_mshr_miss_latency::.cpu.data   4419111000                       # number of WriteReq MSHR miss cycles
system.cpu.dcache.WriteReq_mshr_miss_latency::total   4419111000                       # number of WriteReq MSHR miss cycles
system.cpu.dcache.WriteReq_mshr_miss_rate::.cpu.data     0.036184                       # mshr miss rate for WriteReq accesses
system.cpu.dcache.WriteReq_mshr_miss_rate::total     0.036184                       # mshr miss rate for WriteReq accesses
system.cpu.dcache.WriteReq_avg_mshr_miss_latency::.cpu.data 37087.391107                       # average WriteReq mshr miss latency
system.cpu.dcache.WriteReq_avg_mshr_miss_latency::total 37087.391107                       # average WriteReq mshr miss latency
system.cpu.dcache.power_state.pwrStateResidencyTicks::UNDEFINED 103254569000                       # Cumulative time (in ticks) in various power states
system.cpu.dcache.tags.tagsinuse          1021.768690                       # Cycle average of tags in use
system.cpu.dcache.tags.total_refs            15047475                       # Total number of references to valid blocks.
system.cpu.dcache.tags.sampled_refs            392175                       # Sample count of references to valid blocks.
system.cpu.dcache.tags.avg_refs             38.369287                       # Average number of references to valid blocks.
system.cpu.dcache.tags.warmup_cycle            224000                       # Cycle when the warmup percentage was hit.
system.cpu.dcache.tags.occ_blocks::.cpu.data  1021.768690                       # Average occupied blocks per requestor
system.cpu.dcache.tags.occ_percent::.cpu.data     0.997821                       # Average percentage of cache occupancy
system.cpu.dcache.tags.occ_percent::total     0.997821                       # Average percentage of cache occupancy
system.cpu.dcache.tags.occ_task_id_blocks::1024         1024                       # Occupied blocks per task id
system.cpu.dcache.tags.age_task_id_blocks_1024::0           24                       # Occupied blocks per task id
system.cpu.dcache.tags.age_task_id_blocks_1024::1          104                       # Occupied blocks per task id
system.cpu.dcache.tags.age_task_id_blocks_1024::2          895                       # Occupied blocks per task id
system.cpu.dcache.tags.age_task_id_blocks_1024::3            1                       # Occupied blocks per task id
system.cpu.dcache.tags.occ_task_id_percent::1024            1                       # Percentage of cache occupancy per task id
system.cpu.dcache.tags.tag_accesses          30487125                       # Number of tag accesses
system.cpu.dcache.tags.data_accesses         30487125                       # Number of data accesses
system.cpu.dcache.tags.power_state.pwrStateResidencyTicks::UNDEFINED 103254569000                       # Cumulative time (in ticks) in various power states
system.cpu.dtb.rdAccesses                    11754499                       # TLB accesses on read requests
system.cpu.dtb.wrAccesses                     3293001                       # TLB accesses on write requests
system.cpu.dtb.rdMisses                          5368                       # TLB misses on read requests
system.cpu.dtb.wrMisses                          1839                       # TLB misses on write requests
system.cpu.dtb.walker.power_state.pwrStateResidencyTicks::UNDEFINED 103254569000                       # Cumulative time (in ticks) in various power states
system.cpu.icache.demand_hits::.cpu.inst     30572678                       # number of demand (read+write) hits
system.cpu.icache.demand_hits::total         30572678                       # number of demand (read+write) hits
system.cpu.icache.overall_hits::.cpu.inst     30572678                       # number of overall hits
system.cpu.icache.overall_hits::total        30572678                       # number of overall hits
system.cpu.icache.demand_misses::.cpu.inst         8768                       # number of demand (read+write) misses
system.cpu.icache.demand_misses::total           8768                       # number of demand (read+write) misses
system.cpu.icache.overall_misses::.cpu.inst         8768                       # number of overall misses
system.cpu.icache.overall_misses::total          8768                       # number of overall misses
system.cpu.icache.demand_miss_latency::.cpu.inst    489275000                       # number of demand (read+write) miss cycles
system.cpu.icache.demand_miss_latency::total    489275000                       # number of demand (read+write) miss cycles
system.cpu.icache.overall_miss_latency::.cpu.inst    489275000                       # number of overall miss cycles
system.cpu.icache.overall_miss_latency::total    489275000                       # number of overall miss cycles
system.cpu.icache.demand_accesses::.cpu.inst     30581446                       # number of demand (read+write) accesses
system.cpu.icache.demand_accesses::total     30581446                       # number of demand (read+write) accesses
system.cpu.icache.overall_accesses::.cpu.inst     30581446                       # number of overall (read+write) accesses
system.cpu.icache.overall_accesses::total     30581446                       # number of overall (read+write) accesses
system.cpu.icache.demand_miss_rate::.cpu.inst     0.000287                       # miss rate for demand accesses
system.cpu.icache.demand_miss_rate::total     0.000287                       # miss rate for demand accesses
system.cpu.icache.overall_miss_rate::.cpu.inst     0.000287                       # miss rate for overall accesses
system.cpu.icache.overall_miss_rate::total     0.000287                       # miss rate for overall accesses
system.cpu.icache.demand_avg_miss_latency::.cpu.inst 55802.349453                       # average overall miss latency
system.cpu.icache.demand_avg_miss_latency::total 55802.349453                       # average overall miss latency
system.cpu.icache.overall_avg_miss_latency::.cpu.inst 55802.349453                       # average overall miss latency
system.cpu.icache.overall_avg_miss_latency::total 55802.349453                       # average overall miss latency
system.cpu.icache.blocked_cycles::no_mshrs            0                       # number of cycles access was blocked
system.cpu.icache.blocked_cycles::no_targets            0                       # number of cycles access was blocked
system.cpu.icache.blocked::no_mshrs                 0                       # number of cycles access was blocked
system.cpu.icache.blocked::no_targets               0                       # number of cycles access was blocked
system.cpu.icache.avg_blocked_cycles::no_mshrs          nan                       # average number of cycles each access was blocked
system.cpu.icache.avg_blocked_cycles::no_targets          nan                       # average number of cycles each access was blocked
system.cpu.icache.demand_mshr_misses::.cpu.inst         8768                       # number of demand (read+write) MSHR misses
system.cpu.icache.demand_mshr_misses::total         8768                       # number of demand (read+write) MSHR misses
system.cpu.icache.overall_mshr_misses::.cpu.inst         8768                       # number of overall MSHR misses
system.cpu.icache.overall_mshr_misses::total         8768                       # number of overall MSHR misses
system.cpu.icache.demand_mshr_miss_latency::.cpu.inst    471739000                       # number of demand (read+write) MSHR miss cycles
system.cpu.icache.demand_mshr_miss_latency::total    471739000                       # number of demand (read+write) MSHR miss cycles
system.cpu.icache.overall_mshr_miss_latency::.cpu.inst    471739000                       # number of overall MSHR miss cycles
system.cpu.icache.overall_mshr_miss_latency::total    471739000                       # number of overall MSHR miss cycles
system.cpu.icache.demand_mshr_miss_rate::.cpu.inst     0.000287                       # mshr miss rate for demand accesses
system.cpu.icache.demand_mshr_miss_rate::total     0.000287                       # mshr miss rate for demand accesses
system.cpu.icache.overall_mshr_miss_rate::.cpu.inst     0.000287                       # mshr miss rate for overall accesses
system.cpu.icache.overall_mshr_miss_rate::total     0.000287                       # mshr miss rate for overall accesses
system.cpu.icache.demand_avg_mshr_miss_latency::.cpu.inst 53802.349453                       # average overall mshr miss latency
system.cpu.icache.demand_avg_mshr_miss_latency::total 53802.349453                       # average overall mshr miss latency
system.cpu.icache.overall_avg_mshr_miss_latency::.cpu.inst 53802.349453                       # average overall mshr miss latency
system.cpu.icache.overall_avg_mshr_miss_latency::total 53802.349453                       # average overall mshr miss latency
system.cpu.icache.replacements                   8512                       # number of replacements
system.cpu.icache.ReadReq_hits::.cpu.inst     30572678                       # number of ReadReq hits
system.cpu.icache.ReadReq_hits::total        30572678                       # number of ReadReq hits
system.cpu.icache.ReadReq_misses::.cpu.inst         8768                       # number of ReadReq misses
system.cpu.icache.ReadReq_misses::total          8768                       # number of ReadReq misses
system.cpu.icache.ReadReq_miss_latency::.cpu.inst    489275000                       # number of ReadReq miss cycles
system.cpu.icache.ReadReq_miss_latency::total    489275000                       # number of ReadReq miss cycles
system.cpu.icache.ReadReq_accesses::.cpu.inst     30581446                       # number of ReadReq accesses(hits+misses)
system.cpu.icache.ReadReq_accesses::total     30581446                       # number of ReadReq accesses(hits+misses)
system.cpu.icache.ReadReq_miss_rate::.cpu.inst     0.000287                       # miss rate for ReadReq accesses
system.cpu.icache.ReadReq_miss_rate::total     0.000287                       # miss rate for ReadReq accesses
system.cpu.icache.ReadReq_avg_miss_latency::.cpu.inst 55802.349453                       # average ReadReq miss latency
system.cpu.icache.ReadReq_avg_miss_latency::total 55802.349453                       # average ReadReq miss latency
system.cpu.icache.ReadReq_mshr_misses::.cpu.inst         8768                       # number of ReadReq MSHR misses
system.cpu.icache.ReadReq_mshr_misses::total         8768                       # number of ReadReq MSHR misses
system.cpu.icache.ReadReq_mshr_miss_latency::.cpu.inst    471739000                       # number of ReadReq MSHR miss cycles
system.cpu.icache.ReadReq_mshr_miss_latency::total    471739000                       # number of ReadReq MSHR miss cycles
system.cpu.icache.ReadReq_mshr_miss_rate::.cpu.inst     0.000287                       # mshr miss rate for ReadReq accesses
system.cpu.icache.ReadReq_mshr_miss_rate::total     0.000287                       # mshr miss rate for ReadReq accesses
system.cpu.icache.ReadReq_avg_mshr_miss_latency::.cpu.inst 53802.349453                       # average ReadReq mshr miss latency
system.cpu.icache.ReadReq_avg_mshr_miss_latency::total 53802.349453                       # average ReadReq mshr miss latency
system.cpu.icache.power_state.pwrStateResidencyTicks::UNDEFINED 103254569000                       # Cumulative time (in ticks) in various power states
system.cpu.icache.tags.tagsinuse           255.873224                       # Cycle average of tags in use
system.cpu.icache.tags.total_refs            30581446                       # Total number of references to valid blocks.
system.cpu.icache.tags.sampled_refs              8768                       # Sample count of references to valid blocks.
system.cpu.icache.tags.avg_refs           3487.847400                       # Average number of references to valid blocks.
system.cpu.icache.tags.warmup_cycle            107000                       # Cycle when the warmup percentage was hit.
system.cpu.icache.tags.occ_blocks::.cpu.inst   255.873224                       # Average occupied blocks per requestor
system.cpu.icache.tags.occ_percent::.cpu.inst     0.999505                       # Average percentage of cache occupancy
system.cpu.icache.tags.occ_percent::total     0.999505                       # Average percentage of cache occupancy
system.cpu.icache.tags.occ_task_id_blocks::1024          256                       # Occupied blocks per task id
system.cpu.icache.tags.age_task_id_blocks_1024::0           33                       # Occupied blocks per task id
system.cpu.icache.tags.age_task_id_blocks_1024::1          107                       # Occupied blocks per task id
system.cpu.icache.tags.age_task_id_blocks_1024::2          115                       # Occupied blocks per task id
system.cpu.icache.tags.age_task_id_blocks_1024::4            1                       # Occupied blocks per task id
system.cpu.icache.tags.occ_task_id_percent::1024            1                       # Percentage of cache occupancy per task id
system.cpu.icache.tags.tag_accesses          61171660                       # Number of tag accesses
system.cpu.icache.tags.data_accesses         61171660                       # Number of data accesses
system.cpu.icache.tags.power_state.pwrStateResidencyTicks::UNDEFINED 103254569000                       # Cumulative time (in ticks) in various power states
system.cpu.interrupts.clk_domain.clock          16000                       # Clock period in ticks
system.cpu.itb.rdAccesses                           0                       # TLB accesses on read requests
system.cpu.itb.wrAccesses                    30581446                       # TLB accesses on write requests
system.cpu.itb.rdMisses                             0                       # TLB misses on read requests
system.cpu.itb.wrMisses                           132                       # TLB misses on write requests
system.cpu.itb.walker.power_state.pwrStateResidencyTicks::UNDEFINED 103254569000                       # Cumulative time (in ticks) in various power states
system.cpu.power_state.pwrStateResidencyTicks::ON 103254569000                       # Cumulative time (in ticks) in various power states
system.cpu.thread_0.numInsts                        0                       # Number of Instructions committed
system.cpu.thread_0.numOps                          0                       # Number of Ops committed
system.cpu.thread_0.numMemRefs                      0                       # Number of Memory References
system.l2bus.trans_dist::ReadResp              281789                       # Transaction distribution
system.l2bus.trans_dist::WritebackDirty        387032                       # Transaction distribution
system.l2bus.trans_dist::CleanEvict             27932                       # Transaction distribution
system.l2bus.trans_dist::ReadExReq             119154                       # Transaction distribution
system.l2bus.trans_dist::ReadExResp            119154                       # Transaction distribution
system.l2bus.trans_dist::ReadSharedReq         281789                       # Transaction distribution
system.l2bus.pkt_count_system.cpu.icache.mem_side_port::system.l2cache.cpu_side_port        26048                       # Packet count per connected requestor and responder (bytes)
system.l2bus.pkt_count_system.cpu.dcache.mem_side_port::system.l2cache.cpu_side_port      1175501                       # Packet count per connected requestor and responder (bytes)
system.l2bus.pkt_count::total                 1201549                       # Packet count per connected requestor and responder (bytes)
system.l2bus.pkt_size_system.cpu.icache.mem_side_port::system.l2cache.cpu_side_port       561152                       # Cumulative packet size per connected requestor and responder (bytes)
system.l2bus.pkt_size_system.cpu.dcache.mem_side_port::system.l2cache.cpu_side_port     49241280                       # Cumulative packet size per connected requestor and responder (bytes)
system.l2bus.pkt_size::total                 49802432                       # Cumulative packet size per connected requestor and responder (bytes)
system.l2bus.snoops                             15301                       # Total snoops (count)
system.l2bus.snoopTraffic                      627968                       # Total snoop traffic (bytes)
system.l2bus.snoop_fanout::samples             416244                       # Request fanout histogram
system.l2bus.snoop_fanout::mean              0.003287                       # Request fanout histogram
system.l2bus.snoop_fanout::stdev             0.057234                       # Request fanout histogram
system.l2bus.snoop_fanout::underflows               0      0.00%      0.00% # Request fanout histogram
system.l2bus.snoop_fanout::0                   414876     99.67%     99.67% # Request fanout histogram
system.l2bus.snoop_fanout::1                     1368      0.33%    100.00% # Request fanout histogram
system.l2bus.snoop_fanout::2                        0      0.00%    100.00% # Request fanout histogram
system.l2bus.snoop_fanout::overflows                0      0.00%    100.00% # Request fanout histogram
system.l2bus.snoop_fanout::min_value                0                       # Request fanout histogram
system.l2bus.snoop_fanout::max_value                1                       # Request fanout histogram
system.l2bus.snoop_fanout::total               416244                       # Request fanout histogram
system.l2bus.power_state.pwrStateResidencyTicks::UNDEFINED 103254569000                       # Cumulative time (in ticks) in various power states
system.l2bus.reqLayer0.occupancy           1555046000                       # Layer occupancy (ticks)
system.l2bus.reqLayer0.utilization                1.5                       # Layer utilization (%)
system.l2bus.respLayer0.occupancy            26304000                       # Layer occupancy (ticks)
system.l2bus.respLayer0.utilization               0.0                       # Layer utilization (%)
system.l2bus.respLayer1.occupancy          1176525000                       # Layer occupancy (ticks)
system.l2bus.respLayer1.utilization               1.1                       # Layer utilization (%)
system.l2cache.demand_hits::.cpu.inst            5483                       # number of demand (read+write) hits
system.l2cache.demand_hits::.cpu.data          364126                       # number of demand (read+write) hits
system.l2cache.demand_hits::total              369609                       # number of demand (read+write) hits
system.l2cache.overall_hits::.cpu.inst           5483                       # number of overall hits
system.l2cache.overall_hits::.cpu.data         364126                       # number of overall hits
system.l2cache.overall_hits::total             369609                       # number of overall hits
system.l2cache.demand_misses::.cpu.inst          3285                       # number of demand (read+write) misses
system.l2cache.demand_misses::.cpu.data         28049                       # number of demand (read+write) misses
system.l2cache.demand_misses::total             31334                       # number of demand (read+write) misses
system.l2cache.overall_misses::.cpu.inst         3285                       # number of overall misses
system.l2cache.overall_misses::.cpu.data        28049                       # number of overall misses
system.l2cache.overall_misses::total            31334                       # number of overall misses
system.l2cache.demand_miss_latency::.cpu.inst    330230000                       # number of demand (read+write) miss cycles
system.l2cache.demand_miss_latency::.cpu.data   2700216000                       # number of demand (read+write) miss cycles
system.l2cache.demand_miss_latency::total   3030446000                       # number of demand (read+write) miss cycles
system.l2cache.overall_miss_latency::.cpu.inst    330230000                       # number of overall miss cycles
system.l2cache.overall_miss_latency::.cpu.data   2700216000                       # number of overall miss cycles
system.l2cache.overall_miss_latency::total   3030446000                       # number of overall miss cycles
system.l2cache.demand_accesses::.cpu.inst         8768                       # number of demand (read+write) accesses
system.l2cache.demand_accesses::.cpu.data       392175                       # number of demand (read+write) accesses
system.l2cache.demand_accesses::total          400943                       # number of demand (read+write) accesses
system.l2cache.overall_accesses::.cpu.inst         8768                       # number of overall (read+write) accesses
system.l2cache.overall_accesses::.cpu.data       392175                       # number of overall (read+write) accesses
system.l2cache.overall_accesses::total         400943                       # number of overall (read+write) accesses
system.l2cache.demand_miss_rate::.cpu.inst     0.374658                       # miss rate for demand accesses
system.l2cache.demand_miss_rate::.cpu.data     0.071522                       # miss rate for demand accesses
system.l2cache.demand_miss_rate::total       0.078151                       # miss rate for demand accesses
system.l2cache.overall_miss_rate::.cpu.inst     0.374658                       # miss rate for overall accesses
system.l2cache.overall_miss_rate::.cpu.data     0.071522                       # miss rate for overall accesses
system.l2cache.overall_miss_rate::total      0.078151                       # miss rate for overall accesses
system.l2cache.demand_avg_miss_latency::.cpu.inst 100526.636225                       # average overall miss latency
system.l2cache.demand_avg_miss_latency::.cpu.data 96267.817034                       # average overall miss latency
system.l2cache.demand_avg_miss_latency::total 96714.303951                       # average overall miss latency
system.l2cache.overall_avg_miss_latency::.cpu.inst 100526.636225                       # average overall miss latency
system.l2cache.overall_avg_miss_latency::.cpu.data 96267.817034                       # average overall miss latency
system.l2cache.overall_avg_miss_latency::total 96714.303951                       # average overall miss latency
system.l2cache.blocked_cycles::no_mshrs             0                       # number of cycles access was blocked
system.l2cache.blocked_cycles::no_targets            0                       # number of cycles access was blocked
system.l2cache.blocked::no_mshrs                    0                       # number of cycles access was blocked
system.l2cache.blocked::no_targets                  0                       # number of cycles access was blocked
system.l2cache.avg_blocked_cycles::no_mshrs          nan                       # average number of cycles each access was blocked
system.l2cache.avg_blocked_cycles::no_targets          nan                       # average number of cycles each access was blocked
system.l2cache.writebacks::.writebacks           9812                       # number of writebacks
system.l2cache.writebacks::total                 9812                       # number of writebacks
system.l2cache.demand_mshr_misses::.cpu.inst         3285                       # number of demand (read+write) MSHR misses
system.l2cache.demand_mshr_misses::.cpu.data        28049                       # number of demand (read+write) MSHR misses
system.l2cache.demand_mshr_misses::total        31334                       # number of demand (read+write) MSHR misses
system.l2cache.overall_mshr_misses::.cpu.inst         3285                       # number of overall MSHR misses
system.l2cache.overall_mshr_misses::.cpu.data        28049                       # number of overall MSHR misses
system.l2cache.overall_mshr_misses::total        31334                       # number of overall MSHR misses
system.l2cache.demand_mshr_miss_latency::.cpu.inst    264530000                       # number of demand (read+write) MSHR miss cycles
system.l2cache.demand_mshr_miss_latency::.cpu.data   2139236000                       # number of demand (read+write) MSHR miss cycles
system.l2cache.demand_mshr_miss_latency::total   2403766000                       # number of demand (read+write) MSHR miss cycles
system.l2cache.overall_mshr_miss_latency::.cpu.inst    264530000                       # number of overall MSHR miss cycles
system.l2cache.overall_mshr_miss_latency::.cpu.data   2139236000                       # number of overall MSHR miss cycles
system.l2cache.overall_mshr_miss_latency::total   2403766000                       # number of overall MSHR miss cycles
system.l2cache.demand_mshr_miss_rate::.cpu.inst     0.374658                       # mshr miss rate for demand accesses
system.l2cache.demand_mshr_miss_rate::.cpu.data     0.071522                       # mshr miss rate for demand accesses
system.l2cache.demand_mshr_miss_rate::total     0.078151                       # mshr miss rate for demand accesses
system.l2cache.overall_mshr_miss_rate::.cpu.inst     0.374658                       # mshr miss rate for overall accesses
system.l2cache.overall_mshr_miss_rate::.cpu.data     0.071522                       # mshr miss rate for overall accesses
system.l2cache.overall_mshr_miss_rate::total     0.078151                       # mshr miss rate for overall accesses
system.l2cache.demand_avg_mshr_miss_latency::.cpu.inst 80526.636225                       # average overall mshr miss latency
system.l2cache.demand_avg_mshr_miss_latency::.cpu.data 76267.817034                       # average overall mshr miss latency
system.l2cache.demand_avg_mshr_miss_latency::total 76714.303951                       # average overall mshr miss latency
system.l2cache.overall_avg_mshr_miss_latency::.cpu.inst 80526.636225                       # average overall mshr miss latency
system.l2cache.overall_avg_mshr_miss_latency::.cpu.data 76267.817034                       # average overall mshr miss latency
system.l2cache.overall_avg_mshr_miss_latency::total 76714.303951                       # average overall mshr miss latency
system.l2cache.replacements                     14864                       # number of replacements
system.l2cache.WritebackDirty_hits::.writebacks       377215                       # number of WritebackDirty hits
system.l2cache.WritebackDirty_hits::total       377215                       # number of WritebackDirty hits
system.l2cache.WritebackDirty_misses::.writebacks            5                       # number of WritebackDirty misses
system.l2cache.WritebackDirty_misses::total            5                       # number of WritebackDirty misses
system.l2cache.WritebackDirty_accesses::.writebacks       377220                       # number of WritebackDirty accesses(hits+misses)
system.l2cache.WritebackDirty_accesses::total       377220                       # number of WritebackDirty accesses(hits+misses)
system.l2cache.WritebackDirty_miss_rate::.writebacks     0.000013                       # miss rate for WritebackDirty accesses
system.l2cache.WritebackDirty_miss_rate::total     0.000013                       # miss rate for WritebackDirty accesses
system.l2cache.WritebackDirty_mshr_misses::.writebacks            5                       # number of WritebackDirty MSHR misses
system.l2cache.WritebackDirty_mshr_misses::total            5                       # number of WritebackDirty MSHR misses
system.l2cache.WritebackDirty_mshr_miss_rate::.writebacks     0.000013                       # mshr miss rate for WritebackDirty accesses
system.l2cache.WritebackDirty_mshr_miss_rate::total     0.000013                       # mshr miss rate for WritebackDirty accesses
system.l2cache.CleanEvict_mshr_misses::.writebacks         1005                       # number of CleanEvict MSHR misses
system.l2cache.CleanEvict_mshr_misses::total         1005                       # number of CleanEvict MSHR misses
system.l2cache.CleanEvict_mshr_miss_rate::.writebacks          inf                       # mshr miss rate for CleanEvict accesses
system.l2cache.CleanEvict_mshr_miss_rate::total          inf                       # mshr miss rate for CleanEvict accesses
system.l2cache.ReadExReq_hits::.cpu.data        98319                       # number of ReadExReq hits
system.l2cache.ReadExReq_hits::total            98319                       # number of ReadExReq hits
system.l2cache.ReadExReq_misses::.cpu.data        20835                       # number of ReadExReq misses
system.l2cache.ReadExReq_misses::total          20835                       # number of ReadExReq misses
system.l2cache.ReadExReq_miss_latency::.cpu.data   1996730000                       # number of ReadExReq miss cycles
system.l2cache.ReadExReq_miss_latency::total   1996730000                       # number of ReadExReq miss cycles
system.l2cache.ReadExReq_accesses::.cpu.data       119154                       # number of ReadExReq accesses(hits+misses)
system.l2cache.ReadExReq_accesses::total       119154                       # number of ReadExReq accesses(hits+misses)
system.l2cache.ReadExReq_miss_rate::.cpu.data     0.174858                       # miss rate for ReadExReq accesses
system.l2cache.ReadExReq_miss_rate::total     0.174858                       # miss rate for ReadExReq accesses
system.l2cache.ReadExReq_avg_miss_latency::.cpu.data 95835.373170                       # average ReadExReq miss latency
system.l2cache.ReadExReq_avg_miss_latency::total 95835.373170                       # average ReadExReq miss latency
system.l2cache.ReadExReq_mshr_misses::.cpu.data        20835                       # number of ReadExReq MSHR misses
system.l2cache.ReadExReq_mshr_misses::total        20835                       # number of ReadExReq MSHR misses
system.l2cache.ReadExReq_mshr_miss_latency::.cpu.data   1580030000                       # number of ReadExReq MSHR miss cycles
system.l2cache.ReadExReq_mshr_miss_latency::total   1580030000                       # number of ReadExReq MSHR miss cycles
system.l2cache.ReadExReq_mshr_miss_rate::.cpu.data     0.174858                       # mshr miss rate for ReadExReq accesses
system.l2cache.ReadExReq_mshr_miss_rate::total     0.174858                       # mshr miss rate for ReadExReq accesses
system.l2cache.ReadExReq_avg_mshr_miss_latency::.cpu.data 75835.373170                       # average ReadExReq mshr miss latency
system.l2cache.ReadExReq_avg_mshr_miss_latency::total 75835.373170                       # average ReadExReq mshr miss latency
system.l2cache.ReadSharedReq_hits::.cpu.inst         5483                       # number of ReadSharedReq hits
system.l2cache.ReadSharedReq_hits::.cpu.data       265807                       # number of ReadSharedReq hits
system.l2cache.ReadSharedReq_hits::total       271290                       # number of ReadSharedReq hits
system.l2cache.ReadSharedReq_misses::.cpu.inst         3285                       # number of ReadSharedReq misses
system.l2cache.ReadSharedReq_misses::.cpu.data         7214                       # number of ReadSharedReq misses
system.l2cache.ReadSharedReq_misses::total        10499                       # number of ReadSharedReq misses
system.l2cache.ReadSharedReq_miss_latency::.cpu.inst    330230000                       # number of ReadSharedReq miss cycles
system.l2cache.ReadSharedReq_miss_latency::.cpu.data    703486000                       # number of ReadSharedReq miss cycles
system.l2cache.ReadSharedReq_miss_latency::total   1033716000                       # number of ReadSharedReq miss cycles
system.l2cache.ReadSharedReq_accesses::.cpu.inst         8768                       # number of ReadSharedReq accesses(hits+misses)
system.l2cache.ReadSharedReq_accesses::.cpu.data       273021                       # number of ReadSharedReq accesses(hits+misses)
system.l2cache.ReadSharedReq_accesses::total       281789                       # number of ReadSharedReq accesses(hits+misses)
system.l2cache.ReadSharedReq_miss_rate::.cpu.inst     0.374658                       # miss rate for ReadSharedReq accesses
system.l2cache.ReadSharedReq_miss_rate::.cpu.data     0.026423                       # miss rate for ReadSharedReq accesses
system.l2cache.ReadSharedReq_miss_rate::total     0.037258                       # miss rate for ReadSharedReq accesses
system.l2cache.ReadSharedReq_avg_miss_latency::.cpu.inst 100526.636225                       # average ReadSharedReq miss latency
system.l2cache.ReadSharedReq_avg_miss_latency::.cpu.data 97516.772942                       # average ReadSharedReq miss latency
system.l2cache.ReadSharedReq_avg_miss_latency::total 98458.519859                       # average ReadSharedReq miss latency
system.l2cache.ReadSharedReq_mshr_misses::.cpu.inst         3285                       # number of ReadSharedReq MSHR misses
system.l2cache.ReadSharedReq_mshr_misses::.cpu.data         7214                       # number of ReadSharedReq MSHR misses
system.l2cache.ReadSharedReq_mshr_misses::total        10499                       # number of ReadSharedReq MSHR misses
system.l2cache.ReadSharedReq_mshr_miss_latency::.cpu.inst    264530000                       # number of ReadSharedReq MSHR miss cycles
system.l2cache.ReadSharedReq_mshr_miss_latency::.cpu.data    559206000                       # number of ReadSharedReq MSHR miss cycles
system.l2cache.ReadSharedReq_mshr_miss_latency::total    823736000                       # number of ReadSharedReq MSHR miss cycles
system.l2cache.ReadSharedReq_mshr_miss_rate::.cpu.inst     0.374658                       # mshr miss rate for ReadSharedReq accesses
system.l2cache.ReadSharedReq_mshr_miss_rate::.cpu.data     0.026423                       # mshr miss rate for ReadSharedReq accesses
system.l2cache.ReadSharedReq_mshr_miss_rate::total     0.037258                       # mshr miss rate for ReadSharedReq accesses
system.l2cache.ReadSharedReq_avg_mshr_miss_latency::.cpu.inst 80526.636225                       # average ReadSharedReq mshr miss latency
system.l2cache.ReadSharedReq_avg_mshr_miss_latency::.cpu.data 77516.772942                       # average ReadSharedReq mshr miss latency
system.l2cache.ReadSharedReq_avg_mshr_miss_latency::total 78458.519859                       # average ReadSharedReq mshr miss latency
system.l2cache.power_state.pwrStateResidencyTicks::UNDEFINED 103254569000                       # Cumulative time (in ticks) in various power states
system.l2cache.replacement_policy.totalBypasses          442                       # Total number of cache bypasses
system.l2cache.replacement_policy.effectiveBypasses            2                       # Bypasses that correctly skipped non-reused blocks
system.l2cache.replacement_policy.ineffectiveBypasses          353                       # Bypasses that incorrectly skipped requested blocks
system.l2cache.replacement_policy.virtualEffectiveBypasses           51                       # Virtual bypasses correctly predicting non-reused blocks
system.l2cache.replacement_policy.virtualIneffectiveBypasses         1425                       # Virtual bypasses incorrectly predicting requested blocks
system.l2cache.tags.tagsinuse            15875.525575                       # Cycle average of tags in use
system.l2cache.tags.total_refs                 799159                       # Total number of references to valid blocks.
system.l2cache.tags.sampled_refs                31248                       # Sample count of references to valid blocks.
system.l2cache.tags.avg_refs                25.574725                       # Average number of references to valid blocks.
system.l2cache.tags.warmup_cycle               447000                       # Cycle when the warmup percentage was hit.
system.l2cache.tags.occ_blocks::.writebacks   149.445975                       # Average occupied blocks per requestor
system.l2cache.tags.occ_blocks::.cpu.inst   285.053475                       # Average occupied blocks per requestor
system.l2cache.tags.occ_blocks::.cpu.data 15441.026125                       # Average occupied blocks per requestor
system.l2cache.tags.occ_percent::.writebacks     0.009121                       # Average percentage of cache occupancy
system.l2cache.tags.occ_percent::.cpu.inst     0.017398                       # Average percentage of cache occupancy
system.l2cache.tags.occ_percent::.cpu.data     0.942445                       # Average percentage of cache occupancy
system.l2cache.tags.occ_percent::total       0.968965                       # Average percentage of cache occupancy
system.l2cache.tags.occ_task_id_blocks::1024        16384                       # Occupied blocks per task id
system.l2cache.tags.age_task_id_blocks_1024::0           54                       # Occupied blocks per task id
system.l2cache.tags.age_task_id_blocks_1024::1          129                       # Occupied blocks per task id
system.l2cache.tags.age_task_id_blocks_1024::2         1655                       # Occupied blocks per task id
system.l2cache.tags.age_task_id_blocks_1024::3          348                       # Occupied blocks per task id
system.l2cache.tags.age_task_id_blocks_1024::4        14198                       # Occupied blocks per task id
system.l2cache.tags.occ_task_id_percent::1024            1                       # Percentage of cache occupancy per task id
system.l2cache.tags.tag_accesses              6436096                       # Number of tag accesses
system.l2cache.tags.data_accesses             6436096                       # Number of data accesses
system.l2cache.tags.power_state.pwrStateResidencyTicks::UNDEFINED 103254569000                       # Cumulative time (in ticks) in various power states
system.mem_ctrl.avgPriority_.writebacks::samples      9770.00                       # Average QoS priority value for accepted requests
system.mem_ctrl.avgPriority_.cpu.inst::samples      3285.00                       # Average QoS priority value for accepted requests
system.mem_ctrl.avgPriority_.cpu.data::samples     27792.00                       # Average QoS priority value for accepted requests
system.mem_ctrl.priorityMinLatency       0.000000018750                       # per QoS priority minimum request to response latency (s)
system.mem_ctrl.priorityMaxLatency       0.018371582500                       # per QoS priority maximum request to response latency (s)
system.mem_ctrl.numReadWriteTurnArounds           559                       # Number of turnarounds from READ to WRITE
system.mem_ctrl.numWriteReadTurnArounds           559                       # Number of turnarounds from WRITE to READ
system.mem_ctrl.numStayReadState                98293                       # Number of times bus staying in READ state
system.mem_ctrl.numStayWriteState                9208                       # Number of times bus staying in WRITE state
system.mem_ctrl.readReqs                        31334                       # Number of read requests accepted
system.mem_ctrl.writeReqs                        9817                       # Number of write requests accepted
system.mem_ctrl.readBursts                      31334                       # Number of controller read bursts, including those serviced by the write queue
system.mem_ctrl.writeBursts                      9817                       # Number of controller write bursts, including those merged in the write queue
system.mem_ctrl.servicedByWrQ                     257                       # Number of controller read bursts serviced by the write queue
system.mem_ctrl.mergedWrBursts                     47                       # Number of controller write bursts merged with an existing one
system.mem_ctrl.neitherReadNorWriteReqs             0                       # Number of requests that are neither read nor write
system.mem_ctrl.avgRdQLen                        1.00                       # Average read queue length when enqueuing
system.mem_ctrl.avgWrQLen                       21.51                       # Average write queue length when enqueuing
system.mem_ctrl.numRdRetry                          0                       # Number of times read queue was full causing retry
system.mem_ctrl.numWrRetry                          0                       # Number of times write queue was full causing retry
system.mem_ctrl.readPktSize::0                      0                       # Read request sizes (log2)
system.mem_ctrl.readPktSize::1                      0                       # Read request sizes (log2)
system.mem_ctrl.readPktSize::2                      0                       # Read request sizes (log2)
system.mem_ctrl.readPktSize::3                      0                       # Read request sizes (log2)
system.mem_ctrl.readPktSize::4                      0                       # Read request sizes (log2)
system.mem_ctrl.readPktSize::5                      0                       # Read request sizes (log2)
system.mem_ctrl.readPktSize::6                  31334                       # Read request sizes (log2)
system.mem_ctrl.writePktSize::0                     0                       # Write request sizes (log2)
system.mem_ctrl.writePktSize::1                     0                       # Write request sizes (log2)
system.mem_ctrl.writePktSize::2                     0                       # Write request sizes (log2)
system.mem_ctrl.writePktSize::3                     0                       # Write request sizes (log2)
system.mem_ctrl.writePktSize::4                     0                       # Write request sizes (log2)
system.mem_ctrl.writePktSize::5                     0                       # Write request sizes (log2)
system.mem_ctrl.writePktSize::6                  9817                       # Write request sizes (log2)
system.mem_ctrl.rdQLenPdf::0                    31075                       # What read queue length does an incoming req see
system.mem_ctrl.rdQLenPdf::1                        2                       # What read queue length does an incoming req see
system.mem_ctrl.rdQLenPdf::2                        0                       # What read queue length does an incoming req see
system.mem_ctrl.rdQLenPdf::3                        0                       # What read queue length does an incoming req see
system.mem_ctrl.rdQLenPdf::4                        0                       # What read queue length does an incoming req see
system.mem_ctrl.rdQLenPdf::5                        0                       # What read queue length does an incoming req see
system.mem_ctrl.rdQLenPdf::6                        0                       # What read queue length does an incoming req see
system.mem_ctrl.rdQLenPdf::7                        0                       # What read queue length does an incoming req see
system.mem_ctrl.rdQLenPdf::8                        0                       # What read queue length does an incoming req see
system.mem_ctrl.rdQLenPdf::9                        0                       # What read queue length does an incoming req see
system.mem_ctrl.rdQLenPdf::10                       0                       # What read queue length does an incoming req see
system.mem_ctrl.rdQLenPdf::11                       0                       # What read queue length does an incoming req see
system.mem_ctrl.rdQLenPdf::12                       0                       # What read queue length does an incoming req see
system.mem_ctrl.rdQLenPdf::13                       0                       # What read queue length does an incoming req see
system.mem_ctrl.rdQLenPdf::14                       0                       # What read queue length does an incoming req see
system.mem_ctrl.rdQLenPdf::15                       0                       # What read queue length does an incoming req see
system.mem_ctrl.rdQLenPdf::16                       0                       # What read queue length does an incoming req see
system.mem_ctrl.rdQLenPdf::17                       0                       # What read queue length does an incoming req see
system.mem_ctrl.rdQLenPdf::18                       0                       # What read queue length does an incoming req see
system.mem_ctrl.rdQLenPdf::19                       0                       # What read queue length does an incoming req see
system.mem_ctrl.rdQLenPdf::20                       0                       # What read queue length does an incoming req see
system.mem_ctrl.rdQLenPdf::21                       0                       # What read queue length does an incoming req see
system.mem_ctrl.rdQLenPdf::22                       0                       # What read queue length does an incoming req see
system.mem_ctrl.rdQLenPdf::23                       0                       # What read queue length does an incoming req see
system.mem_ctrl.rdQLenPdf::24                       0                       # What read queue length does an incoming req see
system.mem_ctrl.rdQLenPdf::25                       0                       # What read queue length does an incoming req see
system.mem_ctrl.rdQLenPdf::26                       0                       # What read queue length does an incoming req see
system.mem_ctrl.rdQLenPdf::27                       0                       # What read queue length does an incoming req see
system.mem_ctrl.rdQLenPdf::28                       0                       # What read queue length does an incoming req see
system.mem_ctrl.rdQLenPdf::29                       0                       # What read queue length does an incoming req see
system.mem_ctrl.rdQLenPdf::30                       0                       # What read queue length does an incoming req see
system.mem_ctrl.rdQLenPdf::31                       0                       # What read queue length does an incoming req see
system.mem_ctrl.wrQLenPdf::0                        1                       # What write queue length does an incoming req see
system.mem_ctrl.wrQLenPdf::1                        1                       # What write queue length does an incoming req see
system.mem_ctrl.wrQLenPdf::2                        1                       # What write queue length does an incoming req see
system.mem_ctrl.wrQLenPdf::3                        1                       # What write queue length does an incoming req see
system.mem_ctrl.wrQLenPdf::4                        1                       # What write queue length does an incoming req see
system.mem_ctrl.wrQLenPdf::5                        1                       # What write queue length does an incoming req see
system.mem_ctrl.wrQLenPdf::6                        1                       # What write queue length does an incoming req see
system.mem_ctrl.wrQLenPdf::7                        1                       # What write queue length does an incoming req see
system.mem_ctrl.wrQLenPdf::8                        1                       # What write queue length does an incoming req see
system.mem_ctrl.wrQLenPdf::9                        1                       # What write queue length does an incoming req see
system.mem_ctrl.wrQLenPdf::10                       1                       # What write queue length does an incoming req see
system.mem_ctrl.wrQLenPdf::11                       1                       # What write queue length does an incoming req see
system.mem_ctrl.wrQLenPdf::12                       1                       # What write queue length does an incoming req see
system.mem_ctrl.wrQLenPdf::13                       1                       # What write queue length does an incoming req see
system.mem_ctrl.wrQLenPdf::14                       1                       # What write queue length does an incoming req see
system.mem_ctrl.wrQLenPdf::15                     399                       # What write queue length does an incoming req see
system.mem_ctrl.wrQLenPdf::16                     409                       # What write queue length does an incoming req see
system.mem_ctrl.wrQLenPdf::17                     560                       # What write queue length does an incoming req see
system.mem_ctrl.wrQLenPdf::18                     559                       # What write queue length does an incoming req see
system.mem_ctrl.wrQLenPdf::19                     559                       # What write queue length does an incoming req see
system.mem_ctrl.wrQLenPdf::20                     561                       # What write queue length does an incoming req see
system.mem_ctrl.wrQLenPdf::21                     559                       # What write queue length does an incoming req see
system.mem_ctrl.wrQLenPdf::22                     559                       # What write queue length does an incoming req see
system.mem_ctrl.wrQLenPdf::23                     559                       # What write queue length does an incoming req see
system.mem_ctrl.wrQLenPdf::24                     559                       # What write queue length does an incoming req see
system.mem_ctrl.wrQLenPdf::25                     559                       # What write queue length does an incoming req see
system.mem_ctrl.wrQLenPdf::26                     559                       # What write queue length does an incoming req see
system.mem_ctrl.wrQLenPdf::27                     559                       # What write queue length does an incoming req see
system.mem_ctrl.wrQLenPdf::28                     559                       # What write queue length does an incoming req see
system.mem_ctrl.wrQLenPdf::29                     559                       # What write queue length does an incoming req see
system.mem_ctrl.wrQLenPdf::30                     559                       # What write queue length does an incoming req see
system.mem_ctrl.wrQLenPdf::31                     559                       # What write queue length does an incoming req see
system.mem_ctrl.wrQLenPdf::32                     559                       # What write queue length does an incoming req see
system.mem_ctrl.wrQLenPdf::33                       0                       # What write queue length does an incoming req see
system.mem_ctrl.wrQLenPdf::34                       0                       # What write queue length does an incoming req see
system.mem_ctrl.wrQLenPdf::35                       0                       # What write queue length does an incoming req see
system.mem_ctrl.wrQLenPdf::36                       0                       # What write queue length does an incoming req see
system.mem_ctrl.wrQLenPdf::37                       0                       # What write queue length does an incoming req see
system.mem_ctrl.wrQLenPdf::38                       0                       # What write queue length does an incoming req see
system.mem_ctrl.wrQLenPdf::39                       0                       # What write queue length does an incoming req see
system.mem_ctrl.wrQLenPdf::40                       0                       # What write queue length does an incoming req see
system.mem_ctrl.wrQLenPdf::41                       0                       # What write queue length does an incoming req see
system.mem_ctrl.wrQLenPdf::42                       0                       # What write queue length does an incoming req see
system.mem_ctrl.wrQLenPdf::43                       0                       # What write queue length does an incoming req see
system.mem_ctrl.wrQLenPdf::44                       0                       # What write queue length does an incoming req see
system.mem_ctrl.wrQLenPdf::45                       0                       # What write queue length does an incoming req see
system.mem_ctrl.wrQLenPdf::46                       0                       # What write queue length does an incoming req see
system.mem_ctrl.wrQLenPdf::47                       0                       # What write queue length does an incoming req see
system.mem_ctrl.wrQLenPdf::48                       0                       # What write queue length does an incoming req see
system.mem_ctrl.wrQLenPdf::49                       0                       # What write queue length does an incoming req see
system.mem_ctrl.wrQLenPdf::50                       0                       # What write queue length does an incoming req see
system.mem_ctrl.wrQLenPdf::51                       0                       # What write queue length does an incoming req see
system.mem_ctrl.wrQLenPdf::52                       0                       # What write queue length does an incoming req see
system.mem_ctrl.wrQLenPdf::53                       0                       # What write queue length does an incoming req see
system.mem_ctrl.wrQLenPdf::54                       0                       # What write queue length does an incoming req see
system.mem_ctrl.wrQLenPdf::55                       0                       # What write queue length does an incoming req see
system.mem_ctrl.wrQLenPdf::56                       0                       # What write queue length does an incoming req see
system.mem_ctrl.wrQLenPdf::57                       0                       # What write queue length does an incoming req see
system.mem_ctrl.wrQLenPdf::58                       0                       # What write queue length does an incoming req see
system.mem_ctrl.wrQLenPdf::59                       0                       # What write queue length does an incoming req see
system.mem_ctrl.wrQLenPdf::60                       0                       # What write queue length does an incoming req see
system.mem_ctrl.wrQLenPdf::61                       0                       # What write queue length does an incoming req see
system.mem_ctrl.wrQLenPdf::62                       0                       # What write queue length does an incoming req see
system.mem_ctrl.wrQLenPdf::63                       0                       # What write queue length does an incoming req see
system.mem_ctrl.rdPerTurnAround::samples          559                       # Reads before turning the bus around for writes
system.mem_ctrl.rdPerTurnAround::mean       55.588551                       # Reads before turning the bus around for writes
system.mem_ctrl.rdPerTurnAround::gmean      22.949710                       # Reads before turning the bus around for writes
system.mem_ctrl.rdPerTurnAround::stdev     579.423096                       # Reads before turning the bus around for writes
system.mem_ctrl.rdPerTurnAround::0-511            557     99.64%     99.64% # Reads before turning the bus around for writes
system.mem_ctrl.rdPerTurnAround::1024-1535            1      0.18%     99.82% # Reads before turning the bus around for writes
system.mem_ctrl.rdPerTurnAround::13312-13823            1      0.18%    100.00% # Reads before turning the bus around for writes
system.mem_ctrl.rdPerTurnAround::total            559                       # Reads before turning the bus around for writes
system.mem_ctrl.wrPerTurnAround::samples          559                       # Writes before turning the bus around for reads
system.mem_ctrl.wrPerTurnAround::mean       17.445438                       # Writes before turning the bus around for reads
system.mem_ctrl.wrPerTurnAround::gmean      17.421465                       # Writes before turning the bus around for reads
system.mem_ctrl.wrPerTurnAround::stdev       0.900105                       # Writes before turning the bus around for reads
system.mem_ctrl.wrPerTurnAround::16               153     27.37%     27.37% # Writes before turning the bus around for reads
system.mem_ctrl.wrPerTurnAround::17                 8      1.43%     28.80% # Writes before turning the bus around for reads
system.mem_ctrl.wrPerTurnAround::18               394     70.48%     99.28% # Writes before turning the bus around for reads
system.mem_ctrl.wrPerTurnAround::19                 4      0.72%    100.00% # Writes before turning the bus around for reads
system.mem_ctrl.wrPerTurnAround::total            559                       # Writes before turning the bus around for reads
system.mem_ctrl.bytesReadWrQ                    16448                       # Total number of bytes read from write queue
system.mem_ctrl.bytesReadSys                  2005376                       # Total read bytes from the system interface side
system.mem_ctrl.bytesWrittenSys                628288                       # Total written bytes from the system interface side
system.mem_ctrl.avgRdBWSys                      19.42                       # Average system read bandwidth in MiByte/s
system.mem_ctrl.avgWrBWSys                       6.08                       # Average system write bandwidth in MiByte/s
system.mem_ctrl.totGap                   103254531000                       # Total gap between requests
system.mem_ctrl.avgGap                     2509162.13                       # Average gap between requests
system.mem_ctrl.requestorReadBytes::.cpu.inst       210240                       # Per-requestor bytes read from memory
system.mem_ctrl.requestorReadBytes::.cpu.data      1778688                       # Per-requestor bytes read from memory
system.mem_ctrl.requestorWriteBytes::.writebacks       624128                       # Per-requestor bytes write to memory
system.mem_ctrl.requestorReadRate::.cpu.inst 2036132.657722875010                       # Per-requestor bytes read from memory rate (Bytes/sec)
system.mem_ctrl.requestorReadRate::.cpu.data 17226240.128899283707                       # Per-requestor bytes read from memory rate (Bytes/sec)
system.mem_ctrl.requestorWriteRate::.writebacks 6044555.761982793920                       # Per-requestor bytes write to memory rate (Bytes/sec)
system.mem_ctrl.requestorReadAccesses::.cpu.inst         3285                       # Per-requestor read serviced memory accesses
system.mem_ctrl.requestorReadAccesses::.cpu.data        28049                       # Per-requestor read serviced memory accesses
system.mem_ctrl.requestorWriteAccesses::.writebacks         9817                       # Per-requestor write serviced memory accesses
system.mem_ctrl.requestorReadTotalLat::.cpu.inst     95884500                       # Per-requestor read total memory access latency
system.mem_ctrl.requestorReadTotalLat::.cpu.data    703214250                       # Per-requestor read total memory access latency
system.mem_ctrl.requestorWriteTotalLat::.writebacks 2170230602500                       # Per-requestor write total memory access latency
system.mem_ctrl.requestorReadAvgLat::.cpu.inst     29188.58                       # Per-requestor read average memory access latency
system.mem_ctrl.requestorReadAvgLat::.cpu.data     25070.92                       # Per-requestor read average memory access latency
system.mem_ctrl.requestorWriteAvgLat::.writebacks 221068615.92                       # Per-requestor write average memory access latency
system.mem_ctrl.dram.bytes_read::.cpu.inst       210240                       # Number of bytes read from this memory
system.mem_ctrl.dram.bytes_read::.cpu.data      1795136                       # Number of bytes read from this memory
system.mem_ctrl.dram.bytes_read::total        2005376                       # Number of bytes read from this memory
system.mem_ctrl.dram.bytes_inst_read::.cpu.inst       210240                       # Number of instructions bytes read from this memory
system.mem_ctrl.dram.bytes_inst_read::total       210240                       # Number of instructions bytes read from this memory
system.mem_ctrl.dram.bytes_written::.writebacks       628288                       # Number of bytes written to this memory
system.mem_ctrl.dram.bytes_written::total       628288                       # Number of bytes written to this memory
system.mem_ctrl.dram.num_reads::.cpu.inst         3285                       # Number of read requests responded to by this memory
system.mem_ctrl.dram.num_reads::.cpu.data        28049                       # Number of read requests responded to by this memory
system.mem_ctrl.dram.num_reads::total           31334                       # Number of read requests responded to by this memory
system.mem_ctrl.dram.num_writes::.writebacks         9817                       # Number of write requests responded to by this memory
system.mem_ctrl.dram.num_writes::total           9817                       # Number of write requests responded to by this memory
system.mem_ctrl.dram.bw_read::.cpu.inst       2036133                       # Total read bandwidth from this memory (bytes/s)
system.mem_ctrl.dram.bw_read::.cpu.data      17385536                       # Total read bandwidth from this memory (bytes/s)
system.mem_ctrl.dram.bw_read::total          19421668                       # Total read bandwidth from this memory (bytes/s)
system.mem_ctrl.dram.bw_inst_read::.cpu.inst      2036133                       # Instruction read bandwidth from this memory (bytes/s)
system.mem_ctrl.dram.bw_inst_read::total      2036133                       # Instruction read bandwidth from this memory (bytes/s)
system.mem_ctrl.dram.bw_write::.writebacks      6084845                       # Write bandwidth from this memory (bytes/s)
system.mem_ctrl.dram.bw_write::total          6084845                       # Write bandwidth from this memory (bytes/s)
system.mem_ctrl.dram.bw_total::.writebacks      6084845                       # Total bandwidth to/from this memory (bytes/s)
system.mem_ctrl.dram.bw_total::.cpu.inst      2036133                       # Total bandwidth to/from this memory (bytes/s)
system.mem_ctrl.dram.bw_total::.cpu.data     17385536                       # Total bandwidth to/from this memory (bytes/s)
system.mem_ctrl.dram.bw_total::total         25506513                       # Total bandwidth to/from this memory (bytes/s)
system.mem_ctrl.dram.readBursts                 31077                       # Number of DRAM read bursts
system.mem_ctrl.dram.writeBursts                 9752                       # Number of DRAM write bursts
system.mem_ctrl.dram.perBankRdBursts::0          1717                       # Per bank write bursts
system.mem_ctrl.dram.perBankRdBursts::1          1914                       # Per bank write bursts
system.mem_ctrl.dram.perBankRdBursts::2          1698                       # Per bank write bursts
system.mem_ctrl.dram.perBankRdBursts::3          2860                       # Per bank write bursts
system.mem_ctrl.dram.perBankRdBursts::4          4494                       # Per bank write bursts
system.mem_ctrl.dram.perBankRdBursts::5          2586                       # Per bank write bursts
system.mem_ctrl.dram.perBankRdBursts::6          1180                       # Per bank write bursts
system.mem_ctrl.dram.perBankRdBursts::7          1444                       # Per bank write bursts
system.mem_ctrl.dram.perBankRdBursts::8          1588                       # Per bank write bursts
system.mem_ctrl.dram.perBankRdBursts::9          2083                       # Per bank write bursts
system.mem_ctrl.dram.perBankRdBursts::10         1637                       # Per bank write bursts
system.mem_ctrl.dram.perBankRdBursts::11         1637                       # Per bank write bursts
system.mem_ctrl.dram.perBankRdBursts::12         1857                       # Per bank write bursts
system.mem_ctrl.dram.perBankRdBursts::13         1700                       # Per bank write bursts
system.mem_ctrl.dram.perBankRdBursts::14         1456                       # Per bank write bursts
system.mem_ctrl.dram.perBankRdBursts::15         1226                       # Per bank write bursts
system.mem_ctrl.dram.perBankWrBursts::0           442                       # Per bank write bursts
system.mem_ctrl.dram.perBankWrBursts::1           547                       # Per bank write bursts
system.mem_ctrl.dram.perBankWrBursts::2           420                       # Per bank write bursts
system.mem_ctrl.dram.perBankWrBursts::3          1102                       # Per bank write bursts
system.mem_ctrl.dram.perBankWrBursts::4          2170                       # Per bank write bursts
system.mem_ctrl.dram.perBankWrBursts::5           926                       # Per bank write bursts
system.mem_ctrl.dram.perBankWrBursts::6            80                       # Per bank write bursts
system.mem_ctrl.dram.perBankWrBursts::7           297                       # Per bank write bursts
system.mem_ctrl.dram.perBankWrBursts::8           378                       # Per bank write bursts
system.mem_ctrl.dram.perBankWrBursts::9           707                       # Per bank write bursts
system.mem_ctrl.dram.perBankWrBursts::10          437                       # Per bank write bursts
system.mem_ctrl.dram.perBankWrBursts::11          506                       # Per bank write bursts
system.mem_ctrl.dram.perBankWrBursts::12          680                       # Per bank write bursts
system.mem_ctrl.dram.perBankWrBursts::13          551                       # Per bank write bursts
system.mem_ctrl.dram.perBankWrBursts::14          338                       # Per bank write bursts
system.mem_ctrl.dram.perBankWrBursts::15          171                       # Per bank write bursts
system.mem_ctrl.dram.totQLat                216405000                       # Total ticks spent queuing
system.mem_ctrl.dram.totBusLat              155385000                       # Total ticks spent in databus transfers
system.mem_ctrl.dram.totMemAccLat           799098750                       # Total ticks spent from burst creation until serviced by the DRAM
system.mem_ctrl.dram.avgQLat                  6963.51                       # Average queueing delay per DRAM burst
system.mem_ctrl.dram.avgBusLat                5000.00                       # Average bus latency per DRAM burst
system.mem_ctrl.dram.avgMemAccLat            25713.51                       # Average memory access latency per DRAM burst
system.mem_ctrl.dram.readRowHits                25495                       # Number of row buffer hits during reads
system.mem_ctrl.dram.writeRowHits                7843                       # Number of row buffer hits during writes
system.mem_ctrl.dram.readRowHitRate             82.04                       # Row buffer hit rate for reads
system.mem_ctrl.dram.writeRowHitRate            80.42                       # Row buffer hit rate for writes
system.mem_ctrl.dram.bytesPerActivate::samples         7484                       # Bytes accessed per row activation
system.mem_ctrl.dram.bytesPerActivate::mean   349.032603                       # Bytes accessed per row activation
system.mem_ctrl.dram.bytesPerActivate::gmean   228.585934                       # Bytes accessed per row activation
system.mem_ctrl.dram.bytesPerActivate::stdev   311.596875                       # Bytes accessed per row activation
system.mem_ctrl.dram.bytesPerActivate::0-127         1797     24.01%     24.01% # Bytes accessed per row activation
system.mem_ctrl.dram.bytesPerActivate::128-255         1944     25.98%     49.99% # Bytes accessed per row activation
system.mem_ctrl.dram.bytesPerActivate::256-383          965     12.89%     62.88% # Bytes accessed per row activation
system.mem_ctrl.dram.bytesPerActivate::384-511          579      7.74%     70.62% # Bytes accessed per row activation
system.mem_ctrl.dram.bytesPerActivate::512-639          916     12.24%     82.86% # Bytes accessed per row activation
system.mem_ctrl.dram.bytesPerActivate::640-767          193      2.58%     85.44% # Bytes accessed per row activation
system.mem_ctrl.dram.bytesPerActivate::768-895          140      1.87%     87.31% # Bytes accessed per row activation
system.mem_ctrl.dram.bytesPerActivate::896-1023          139      1.86%     89.16% # Bytes accessed per row activation
system.mem_ctrl.dram.bytesPerActivate::1024-1151          811     10.84%    100.00% # Bytes accessed per row activation
system.mem_ctrl.dram.bytesPerActivate::total         7484                       # Bytes accessed per row activation
system.mem_ctrl.dram.bytesRead                1988928                       # Total number of bytes read from DRAM
system.mem_ctrl.dram.bytesWritten              624128                       # Total number of bytes written to DRAM
system.mem_ctrl.dram.avgRdBW                19.262373                       # Average DRAM read bandwidth in MiBytes/s
system.mem_ctrl.dram.avgWrBW                 6.044556                       # Average DRAM write bandwidth in MiBytes/s
system.mem_ctrl.dram.peakBW                  12800.00                       # Theoretical peak bandwidth in MiByte/s
system.mem_ctrl.dram.busUtil                     0.20                       # Data bus utilization in percentage
system.mem_ctrl.dram.busUtilRead                 0.15                       # Data bus utilization in percentage for reads
system.mem_ctrl.dram.busUtilWrite                0.05                       # Data bus utilization in percentage for writes
system.mem_ctrl.dram.pageHitRate                81.65                       # Row buffer hit rate, read and write combined
system.mem_ctrl.dram.power_state.pwrStateResidencyTicks::UNDEFINED 103254569000                       # Cumulative time (in ticks) in various power states
system.mem_ctrl.dram.rank0.actEnergy         33072480                       # Energy for activate commands per rank (pJ)
system.mem_ctrl.dram.rank0.preEnergy         17563260                       # Energy for precharge commands per rank (pJ)
system.mem_ctrl.dram.rank0.readEnergy       127756020                       # Energy for read commands per rank (pJ)
system.mem_ctrl.dram.rank0.writeEnergy       31236480                       # Energy for write commands per rank (pJ)
system.mem_ctrl.dram.rank0.refreshEnergy 8150741040.000001                       # Energy for refresh commands per rank (pJ)
system.mem_ctrl.dram.rank0.actBackEnergy   6965096760                       # Energy for active background per rank (pJ)
system.mem_ctrl.dram.rank0.preBackEnergy  33784410240                       # Energy for precharge background per rank (pJ)
system.mem_ctrl.dram.rank0.actPowerDownEnergy            0                       # Energy for active power-down per rank (pJ)
system.mem_ctrl.dram.rank0.prePowerDownEnergy            0                       # Energy for precharge power-down per rank (pJ)
system.mem_ctrl.dram.rank0.selfRefreshEnergy            0                       # Energy for self refresh per rank (pJ)
system.mem_ctrl.dram.rank0.totalEnergy    49109876280                       # Total energy per rank (pJ)
system.mem_ctrl.dram.rank0.averagePower    475.619401                       # Core power per rank (mW)
system.mem_ctrl.dram.rank0.totalIdleTime            0                       # Total Idle time Per DRAM Rank
system.mem_ctrl.dram.rank0.pwrStateTime::IDLE  87762439750                       # Time in different power states
system.mem_ctrl.dram.rank0.pwrStateTime::REF   3447860000                       # Time in different power states
system.mem_ctrl.dram.rank0.pwrStateTime::SREF            0                       # Time in different power states
system.mem_ctrl.dram.rank0.pwrStateTime::PRE_PDN            0                       # Time in different power states
system.mem_ctrl.dram.rank0.pwrStateTime::ACT  12044269250                       # Time in different power states
system.mem_ctrl.dram.rank0.pwrStateTime::ACT_PDN            0                       # Time in different power states
system.mem_ctrl.dram.rank1.actEnergy         20413260                       # Energy for activate commands per rank (pJ)
system.mem_ctrl.dram.rank1.preEnergy         10838520                       # Energy for precharge commands per rank (pJ)
system.mem_ctrl.dram.rank1.readEnergy        94133760                       # Energy for read commands per rank (pJ)
system.mem_ctrl.dram.rank1.writeEnergy       19668960                       # Energy for write commands per rank (pJ)
system.mem_ctrl.dram.rank1.refreshEnergy 8150741040.000001                       # Energy for refresh commands per rank (pJ)
system.mem_ctrl.dram.rank1.actBackEnergy   4757739270                       # Energy for active background per rank (pJ)
system.mem_ctrl.dram.rank1.preBackEnergy  35643237600                       # Energy for precharge background per rank (pJ)
system.mem_ctrl.dram.rank1.actPowerDownEnergy            0                       # Energy for active power-down per rank (pJ)
system.mem_ctrl.dram.rank1.prePowerDownEnergy            0                       # Energy for precharge power-down per rank (pJ)
system.mem_ctrl.dram.rank1.selfRefreshEnergy            0                       # Energy for self refresh per rank (pJ)
system.mem_ctrl.dram.rank1.totalEnergy    48696772410                       # Total energy per rank (pJ)
system.mem_ctrl.dram.rank1.averagePower    471.618572                       # Core power per rank (mW)
system.mem_ctrl.dram.rank1.totalIdleTime            0                       # Total Idle time Per DRAM Rank
system.mem_ctrl.dram.rank1.pwrStateTime::IDLE  92616264250                       # Time in different power states
system.mem_ctrl.dram.rank1.pwrStateTime::REF   3447860000                       # Time in different power states
system.mem_ctrl.dram.rank1.pwrStateTime::SREF            0                       # Time in different power states
system.mem_ctrl.dram.rank1.pwrStateTime::PRE_PDN            0                       # Time in different power states
system.mem_ctrl.dram.rank1.pwrStateTime::ACT   7190444750                       # Time in different power states
system.mem_ctrl.dram.rank1.pwrStateTime::ACT_PDN            0                       # Time in different power states
system.mem_ctrl.power_state.pwrStateResidencyTicks::UNDEFINED 103254569000                       # Cumulative time (in ticks) in various power states
system.membus.trans_dist::ReadResp              10499                       # Transaction distribution
system.membus.trans_dist::WritebackDirty         9817                       # Transaction distribution
system.membus.trans_dist::CleanEvict             5126                       # Transaction distribution
system.membus.trans_dist::ReadExReq             20835                       # Transaction distribution
system.membus.trans_dist::ReadExResp            20835                       # Transaction distribution
system.membus.trans_dist::ReadSharedReq         10499                       # Transaction distribution
system.membus.pkt_count_system.l2cache.mem_side_port::system.mem_ctrl.port        77611                       # Packet count per connected requestor and responder (bytes)
system.membus.pkt_count_system.l2cache.mem_side_port::total        77611                       # Packet count per connected requestor and responder (bytes)
system.membus.pkt_count::total                  77611                       # Packet count per connected requestor and responder (bytes)
system.membus.pkt_size_system.l2cache.mem_side_port::system.mem_ctrl.port      2633664                       # Cumulative packet size per connected requestor and responder (bytes)
system.membus.pkt_size_system.l2cache.mem_side_port::total      2633664                       # Cumulative packet size per connected requestor and responder (bytes)
system.membus.pkt_size::total                 2633664                       # Cumulative packet size per connected requestor and responder (bytes)
system.membus.snoops                                0                       # Total snoops (count)
system.membus.snoopTraffic                          0                       # Total snoop traffic (bytes)
system.membus.snoop_fanout::samples             31334                       # Request fanout histogram
system.membus.snoop_fanout::mean                    0                       # Request fanout histogram
system.membus.snoop_fanout::stdev                   0                       # Request fanout histogram
system.membus.snoop_fanout::underflows              0      0.00%      0.00% # Request fanout histogram
system.membus.snoop_fanout::0                   31334    100.00%    100.00% # Request fanout histogram
system.membus.snoop_fanout::1                       0      0.00%    100.00% # Request fanout histogram
system.membus.snoop_fanout::overflows               0      0.00%    100.00% # Request fanout histogram
system.membus.snoop_fanout::min_value               0                       # Request fanout histogram
system.membus.snoop_fanout::max_value               0                       # Request fanout histogram
system.membus.snoop_fanout::total               31334                       # Request fanout histogram
system.membus.power_state.pwrStateResidencyTicks::UNDEFINED 103254569000                       # Cumulative time (in ticks) in various power states
system.membus.reqLayer2.occupancy            85545000                       # Layer occupancy (ticks)
system.membus.reqLayer2.utilization               0.1                       # Layer utilization (%)
system.membus.respLayer0.occupancy          165872250                       # Layer occupancy (ticks)
system.membus.respLayer0.utilization              0.2                       # Layer utilization (%)

---------- End Simulation Statistics   ----------
