
---------- Begin Simulation Statistics ----------
final_tick                               1703801581000                       # Number of ticks from beginning of simulation (restored from checkpoints and never reset)
host_inst_rate                                 417989                       # Simulator instruction rate (inst/s)
host_mem_usage                                 666176                       # Number of bytes of host memory used
host_op_rate                                   767062                       # Simulator op (including micro ops) rate (op/s)
host_seconds                                   710.98                       # Real time elapsed on the host
host_tick_rate                             2396417126                       # Simulator tick rate (ticks/s)
sim_freq                                 1000000000000                       # Frequency of simulated ticks
sim_insts                                   297180963                       # Number of instructions simulated
sim_ops                                     545364496                       # Number of ops (including micro ops) simulated
sim_seconds                                  1.703802                       # Number of seconds simulated
sim_ticks                                1703801581000                       # Number of ticks simulated
system.cpu.Branches                          49473258                       # Number of branches fetched
system.cpu.committedInsts                   297180963                       # Number of instructions committed
system.cpu.committedOps                     545364496                       # Number of ops (including micro ops) committed
system.cpu.idle_fraction                     0.000000                       # Percentage of idle cycles
system.cpu.not_idle_fraction                 1.000000                       # Percentage of non-idle cycles
system.cpu.numCycles                       1703801581                       # number of cpu cycles simulated
system.cpu.numWorkItemsCompleted                    0                       # number of work items this cpu completed
system.cpu.numWorkItemsStarted                      0                       # number of work items this cpu started
system.cpu.num_busy_cycles               1703801580.999000                       # Number of busy cycles
system.cpu.num_cc_register_reads            252086524                       # number of times the CC registers were read
system.cpu.num_cc_register_writes           180867019                       # number of times the CC registers were written
system.cpu.num_conditional_control_insts     49270085                       # number of instructions that are conditional controls
system.cpu.num_fp_alu_accesses              184508630                       # Number of float alu accesses
system.cpu.num_fp_insts                     184508630                       # number of float instructions
system.cpu.num_fp_register_reads            225216959                       # number of times the floating registers were read
system.cpu.num_fp_register_writes           180499649                       # number of times the floating registers were written
system.cpu.num_func_calls                       81592                       # number of times a function call or return occured
system.cpu.num_idle_cycles                   0.001000                       # Number of idle cycles
system.cpu.num_int_alu_accesses             435906577                       # Number of integer alu accesses
system.cpu.num_int_insts                    435906577                       # number of integer instructions
system.cpu.num_int_register_reads           778692897                       # number of times the integer registers were read
system.cpu.num_int_register_writes          309382632                       # number of times the integer registers were written
system.cpu.num_load_insts                   111390464                       # Number of load instructions
system.cpu.num_mem_refs                     116747128                       # number of memory refs
system.cpu.num_store_insts                    5356664                       # Number of store instructions
system.cpu.num_vec_alu_accesses                     0                       # Number of vector alu accesses
system.cpu.num_vec_insts                            0                       # number of vector instructions
system.cpu.num_vec_register_reads                   0                       # number of times the vector registers were read
system.cpu.num_vec_register_writes                  0                       # number of times the vector registers were written
system.cpu.op_class::No_OpClass                710623      0.13%      0.13% # Class of executed instruction
system.cpu.op_class::IntAlu                 322694235     59.17%     59.30% # Class of executed instruction
system.cpu.op_class::IntMult                    30102      0.01%     59.31% # Class of executed instruction
system.cpu.op_class::IntDiv                       616      0.00%     59.31% # Class of executed instruction
system.cpu.op_class::FloatAdd                33737834      6.19%     65.49% # Class of executed instruction
system.cpu.op_class::FloatCmp                       0      0.00%     65.49% # Class of executed instruction
system.cpu.op_class::FloatCvt                       0      0.00%     65.49% # Class of executed instruction
system.cpu.op_class::FloatMult                      0      0.00%     65.49% # Class of executed instruction
system.cpu.op_class::FloatMultAcc                   0      0.00%     65.49% # Class of executed instruction
system.cpu.op_class::FloatDiv                       0      0.00%     65.49% # Class of executed instruction
system.cpu.op_class::FloatMisc                      0      0.00%     65.49% # Class of executed instruction
system.cpu.op_class::FloatSqrt                      0      0.00%     65.49% # Class of executed instruction
system.cpu.op_class::SimdAdd                    76762      0.01%     65.51% # Class of executed instruction
system.cpu.op_class::SimdAddAcc                     0      0.00%     65.51% # Class of executed instruction
system.cpu.op_class::SimdAlu                    60252      0.01%     65.52% # Class of executed instruction
system.cpu.op_class::SimdCmp                       24      0.00%     65.52% # Class of executed instruction
system.cpu.op_class::SimdCvt                     1170      0.00%     65.52% # Class of executed instruction
system.cpu.op_class::SimdMisc                  125019      0.02%     65.54% # Class of executed instruction
system.cpu.op_class::SimdMult                       0      0.00%     65.54% # Class of executed instruction
system.cpu.op_class::SimdMultAcc                    0      0.00%     65.54% # Class of executed instruction
system.cpu.op_class::SimdShift                      0      0.00%     65.54% # Class of executed instruction
system.cpu.op_class::SimdShiftAcc                   0      0.00%     65.54% # Class of executed instruction
system.cpu.op_class::SimdDiv                        0      0.00%     65.54% # Class of executed instruction
system.cpu.op_class::SimdSqrt                       0      0.00%     65.54% # Class of executed instruction
system.cpu.op_class::SimdFloatAdd            35512541      6.51%     72.05% # Class of executed instruction
system.cpu.op_class::SimdFloatAlu                   0      0.00%     72.05% # Class of executed instruction
system.cpu.op_class::SimdFloatCmp                   0      0.00%     72.05% # Class of executed instruction
system.cpu.op_class::SimdFloatCvt              101637      0.02%     72.07% # Class of executed instruction
system.cpu.op_class::SimdFloatDiv                 835      0.00%     72.07% # Class of executed instruction
system.cpu.op_class::SimdFloatMisc                  0      0.00%     72.07% # Class of executed instruction
system.cpu.op_class::SimdFloatMult           35565797      6.52%     78.59% # Class of executed instruction
system.cpu.op_class::SimdFloatMultAcc               0      0.00%     78.59% # Class of executed instruction
system.cpu.op_class::SimdFloatSqrt                 32      0.00%     78.59% # Class of executed instruction
system.cpu.op_class::SimdReduceAdd                  0      0.00%     78.59% # Class of executed instruction
system.cpu.op_class::SimdReduceAlu                  0      0.00%     78.59% # Class of executed instruction
system.cpu.op_class::SimdReduceCmp                  0      0.00%     78.59% # Class of executed instruction
system.cpu.op_class::SimdFloatReduceAdd             0      0.00%     78.59% # Class of executed instruction
system.cpu.op_class::SimdFloatReduceCmp             0      0.00%     78.59% # Class of executed instruction
system.cpu.op_class::SimdAes                        0      0.00%     78.59% # Class of executed instruction
system.cpu.op_class::SimdAesMix                     0      0.00%     78.59% # Class of executed instruction
system.cpu.op_class::SimdSha1Hash                   0      0.00%     78.59% # Class of executed instruction
system.cpu.op_class::SimdSha1Hash2                  0      0.00%     78.59% # Class of executed instruction
system.cpu.op_class::SimdSha256Hash                 0      0.00%     78.59% # Class of executed instruction
system.cpu.op_class::SimdSha256Hash2                0      0.00%     78.59% # Class of executed instruction
system.cpu.op_class::SimdShaSigma2                  0      0.00%     78.59% # Class of executed instruction
system.cpu.op_class::SimdShaSigma3                  0      0.00%     78.59% # Class of executed instruction
system.cpu.op_class::SimdPredAlu                    0      0.00%     78.59% # Class of executed instruction
system.cpu.op_class::MemRead                 39670281      7.27%     85.87% # Class of executed instruction
system.cpu.op_class::MemWrite                 1421533      0.26%     86.13% # Class of executed instruction
system.cpu.op_class::FloatMemRead            71720183     13.15%     99.28% # Class of executed instruction
system.cpu.op_class::FloatMemWrite            3935131      0.72%    100.00% # Class of executed instruction
system.cpu.op_class::IprAccess                      0      0.00%    100.00% # Class of executed instruction
system.cpu.op_class::InstPrefetch                   0      0.00%    100.00% # Class of executed instruction
system.cpu.op_class::total                  545364607                       # Class of executed instruction
system.cpu.workload.numSyscalls                    87                       # Number of system calls
system.l2bus.snoop_filter.hit_multi_requests            0                       # Number of requests hitting in the snoop filter with multiple (>1) holders of the requested data.
system.l2bus.snoop_filter.hit_multi_snoops            0                       # Number of snoops hitting in the snoop filter with multiple (>1) holders of the requested data.
system.l2bus.snoop_filter.hit_single_requests      6626200                       # Number of requests hitting in the snoop filter with a single holder of the requested data.
system.l2bus.snoop_filter.hit_single_snoops        85328                       # Number of snoops hitting in the snoop filter with a single holder of the requested data.
system.l2bus.snoop_filter.tot_requests       13253680                       # Total number of requests made to the snoop filter.
system.l2bus.snoop_filter.tot_snoops            85328                       # Total number of snoops made to the snoop filter.
system.membus.snoop_filter.hit_multi_requests            0                       # Number of requests hitting in the snoop filter with multiple (>1) holders of the requested data.
system.membus.snoop_filter.hit_multi_snoops            0                       # Number of snoops hitting in the snoop filter with multiple (>1) holders of the requested data.
system.membus.snoop_filter.hit_single_requests      6442484                       # Number of requests hitting in the snoop filter with a single holder of the requested data.
system.membus.snoop_filter.hit_single_snoops            0                       # Number of snoops hitting in the snoop filter with a single holder of the requested data.
system.membus.snoop_filter.tot_requests      12893243                       # Total number of requests made to the snoop filter.
system.membus.snoop_filter.tot_snoops               0                       # Total number of snoops made to the snoop filter.
system.clk_domain.clock                          1000                       # Clock period in ticks
system.clk_domain.voltage_domain.voltage            1                       # Voltage in Volts
system.cpu.dcache.demand_hits::.cpu.data    110150239                       # number of demand (read+write) hits
system.cpu.dcache.demand_hits::total        110150239                       # number of demand (read+write) hits
system.cpu.dcache.overall_hits::.cpu.data    110150239                       # number of overall hits
system.cpu.dcache.overall_hits::total       110150239                       # number of overall hits
system.cpu.dcache.demand_misses::.cpu.data      6608747                       # number of demand (read+write) misses
system.cpu.dcache.demand_misses::total        6608747                       # number of demand (read+write) misses
system.cpu.dcache.overall_misses::.cpu.data      6608747                       # number of overall misses
system.cpu.dcache.overall_misses::total       6608747                       # number of overall misses
system.cpu.dcache.demand_miss_latency::.cpu.data 655814948000                       # number of demand (read+write) miss cycles
system.cpu.dcache.demand_miss_latency::total 655814948000                       # number of demand (read+write) miss cycles
system.cpu.dcache.overall_miss_latency::.cpu.data 655814948000                       # number of overall miss cycles
system.cpu.dcache.overall_miss_latency::total 655814948000                       # number of overall miss cycles
system.cpu.dcache.demand_accesses::.cpu.data    116758986                       # number of demand (read+write) accesses
system.cpu.dcache.demand_accesses::total    116758986                       # number of demand (read+write) accesses
system.cpu.dcache.overall_accesses::.cpu.data    116758986                       # number of overall (read+write) accesses
system.cpu.dcache.overall_accesses::total    116758986                       # number of overall (read+write) accesses
system.cpu.dcache.demand_miss_rate::.cpu.data     0.056602                       # miss rate for demand accesses
system.cpu.dcache.demand_miss_rate::total     0.056602                       # miss rate for demand accesses
system.cpu.dcache.overall_miss_rate::.cpu.data     0.056602                       # miss rate for overall accesses
system.cpu.dcache.overall_miss_rate::total     0.056602                       # miss rate for overall accesses
system.cpu.dcache.demand_avg_miss_latency::.cpu.data 99234.385580                       # average overall miss latency
system.cpu.dcache.demand_avg_miss_latency::total 99234.385580                       # average overall miss latency
system.cpu.dcache.overall_avg_miss_latency::.cpu.data 99234.385580                       # average overall miss latency
system.cpu.dcache.overall_avg_miss_latency::total 99234.385580                       # average overall miss latency
system.cpu.dcache.blocked_cycles::no_mshrs            0                       # number of cycles access was blocked
system.cpu.dcache.blocked_cycles::no_targets            0                       # number of cycles access was blocked
system.cpu.dcache.blocked::no_mshrs                 0                       # number of cycles access was blocked
system.cpu.dcache.blocked::no_targets               0                       # number of cycles access was blocked
system.cpu.dcache.avg_blocked_cycles::no_mshrs          nan                       # average number of cycles each access was blocked
system.cpu.dcache.avg_blocked_cycles::no_targets          nan                       # average number of cycles each access was blocked
system.cpu.dcache.writebacks::.writebacks       403700                       # number of writebacks
system.cpu.dcache.writebacks::total            403700                       # number of writebacks
system.cpu.dcache.demand_mshr_misses::.cpu.data      6608747                       # number of demand (read+write) MSHR misses
system.cpu.dcache.demand_mshr_misses::total      6608747                       # number of demand (read+write) MSHR misses
system.cpu.dcache.overall_mshr_misses::.cpu.data      6608747                       # number of overall MSHR misses
system.cpu.dcache.overall_mshr_misses::total      6608747                       # number of overall MSHR misses
system.cpu.dcache.demand_mshr_miss_latency::.cpu.data 642597454000                       # number of demand (read+write) MSHR miss cycles
system.cpu.dcache.demand_mshr_miss_latency::total 642597454000                       # number of demand (read+write) MSHR miss cycles
system.cpu.dcache.overall_mshr_miss_latency::.cpu.data 642597454000                       # number of overall MSHR miss cycles
system.cpu.dcache.overall_mshr_miss_latency::total 642597454000                       # number of overall MSHR miss cycles
system.cpu.dcache.demand_mshr_miss_rate::.cpu.data     0.056602                       # mshr miss rate for demand accesses
system.cpu.dcache.demand_mshr_miss_rate::total     0.056602                       # mshr miss rate for demand accesses
system.cpu.dcache.overall_mshr_miss_rate::.cpu.data     0.056602                       # mshr miss rate for overall accesses
system.cpu.dcache.overall_mshr_miss_rate::total     0.056602                       # mshr miss rate for overall accesses
system.cpu.dcache.demand_avg_mshr_miss_latency::.cpu.data 97234.385580                       # average overall mshr miss latency
system.cpu.dcache.demand_avg_mshr_miss_latency::total 97234.385580                       # average overall mshr miss latency
system.cpu.dcache.overall_avg_mshr_miss_latency::.cpu.data 97234.385580                       # average overall mshr miss latency
system.cpu.dcache.overall_avg_mshr_miss_latency::total 97234.385580                       # average overall mshr miss latency
system.cpu.dcache.replacements                6607723                       # number of replacements
system.cpu.dcache.ReadReq_hits::.cpu.data    104904671                       # number of ReadReq hits
system.cpu.dcache.ReadReq_hits::total       104904671                       # number of ReadReq hits
system.cpu.dcache.ReadReq_misses::.cpu.data      6490776                       # number of ReadReq misses
system.cpu.dcache.ReadReq_misses::total       6490776                       # number of ReadReq misses
system.cpu.dcache.ReadReq_miss_latency::.cpu.data 647130683000                       # number of ReadReq miss cycles
system.cpu.dcache.ReadReq_miss_latency::total 647130683000                       # number of ReadReq miss cycles
system.cpu.dcache.ReadReq_accesses::.cpu.data    111395447                       # number of ReadReq accesses(hits+misses)
system.cpu.dcache.ReadReq_accesses::total    111395447                       # number of ReadReq accesses(hits+misses)
system.cpu.dcache.ReadReq_miss_rate::.cpu.data     0.058268                       # miss rate for ReadReq accesses
system.cpu.dcache.ReadReq_miss_rate::total     0.058268                       # miss rate for ReadReq accesses
system.cpu.dcache.ReadReq_avg_miss_latency::.cpu.data 99700.048654                       # average ReadReq miss latency
system.cpu.dcache.ReadReq_avg_miss_latency::total 99700.048654                       # average ReadReq miss latency
system.cpu.dcache.ReadReq_mshr_misses::.cpu.data      6490776                       # number of ReadReq MSHR misses
system.cpu.dcache.ReadReq_mshr_misses::total      6490776                       # number of ReadReq MSHR misses
system.cpu.dcache.ReadReq_mshr_miss_latency::.cpu.data 634149131000                       # number of ReadReq MSHR miss cycles
system.cpu.dcache.ReadReq_mshr_miss_latency::total 634149131000                       # number of ReadReq MSHR miss cycles
system.cpu.dcache.ReadReq_mshr_miss_rate::.cpu.data     0.058268                       # mshr miss rate for ReadReq accesses
system.cpu.dcache.ReadReq_mshr_miss_rate::total     0.058268                       # mshr miss rate for ReadReq accesses
system.cpu.dcache.ReadReq_avg_mshr_miss_latency::.cpu.data 97700.048654                       # average ReadReq mshr miss latency
system.cpu.dcache.ReadReq_avg_mshr_miss_latency::total 97700.048654                       # average ReadReq mshr miss latency
system.cpu.dcache.WriteReq_hits::.cpu.data      5245568                       # number of WriteReq hits
system.cpu.dcache.WriteReq_hits::total        5245568                       # number of WriteReq hits
system.cpu.dcache.WriteReq_misses::.cpu.data       117971                       # number of WriteReq misses
system.cpu.dcache.WriteReq_misses::total       117971                       # number of WriteReq misses
system.cpu.dcache.WriteReq_miss_latency::.cpu.data   8684265000                       # number of WriteReq miss cycles
system.cpu.dcache.WriteReq_miss_latency::total   8684265000                       # number of WriteReq miss cycles
system.cpu.dcache.WriteReq_accesses::.cpu.data      5363539                       # number of WriteReq accesses(hits+misses)
system.cpu.dcache.WriteReq_accesses::total      5363539                       # number of WriteReq accesses(hits+misses)
system.cpu.dcache.WriteReq_miss_rate::.cpu.data     0.021995                       # miss rate for WriteReq accesses
system.cpu.dcache.WriteReq_miss_rate::total     0.021995                       # miss rate for WriteReq accesses
system.cpu.dcache.WriteReq_avg_miss_latency::.cpu.data 73613.557569                       # average WriteReq miss latency
system.cpu.dcache.WriteReq_avg_miss_latency::total 73613.557569                       # average WriteReq miss latency
system.cpu.dcache.WriteReq_mshr_misses::.cpu.data       117971                       # number of WriteReq MSHR misses
system.cpu.dcache.WriteReq_mshr_misses::total       117971                       # number of WriteReq MSHR misses
system.cpu.dcache.WriteReq_mshr_miss_latency::.cpu.data   8448323000                       # number of WriteReq MSHR miss cycles
system.cpu.dcache.WriteReq_mshr_miss_latency::total   8448323000                       # number of WriteReq MSHR miss cycles
system.cpu.dcache.WriteReq_mshr_miss_rate::.cpu.data     0.021995                       # mshr miss rate for WriteReq accesses
system.cpu.dcache.WriteReq_mshr_miss_rate::total     0.021995                       # mshr miss rate for WriteReq accesses
system.cpu.dcache.WriteReq_avg_mshr_miss_latency::.cpu.data 71613.557569                       # average WriteReq mshr miss latency
system.cpu.dcache.WriteReq_avg_mshr_miss_latency::total 71613.557569                       # average WriteReq mshr miss latency
system.cpu.dcache.power_state.pwrStateResidencyTicks::UNDEFINED 1703801581000                       # Cumulative time (in ticks) in various power states
system.cpu.dcache.tags.tagsinuse          1023.809381                       # Cycle average of tags in use
system.cpu.dcache.tags.total_refs           116758986                       # Total number of references to valid blocks.
system.cpu.dcache.tags.sampled_refs           6608747                       # Sample count of references to valid blocks.
system.cpu.dcache.tags.avg_refs             17.667341                       # Average number of references to valid blocks.
system.cpu.dcache.tags.warmup_cycle            224000                       # Cycle when the warmup percentage was hit.
system.cpu.dcache.tags.occ_blocks::.cpu.data  1023.809381                       # Average occupied blocks per requestor
system.cpu.dcache.tags.occ_percent::.cpu.data     0.999814                       # Average percentage of cache occupancy
system.cpu.dcache.tags.occ_percent::total     0.999814                       # Average percentage of cache occupancy
system.cpu.dcache.tags.occ_task_id_blocks::1024         1024                       # Occupied blocks per task id
system.cpu.dcache.tags.age_task_id_blocks_1024::0           28                       # Occupied blocks per task id
system.cpu.dcache.tags.age_task_id_blocks_1024::1          109                       # Occupied blocks per task id
system.cpu.dcache.tags.age_task_id_blocks_1024::2          807                       # Occupied blocks per task id
system.cpu.dcache.tags.age_task_id_blocks_1024::3           80                       # Occupied blocks per task id
system.cpu.dcache.tags.occ_task_id_percent::1024            1                       # Percentage of cache occupancy per task id
system.cpu.dcache.tags.tag_accesses         240126719                       # Number of tag accesses
system.cpu.dcache.tags.data_accesses        240126719                       # Number of data accesses
system.cpu.dcache.tags.power_state.pwrStateResidencyTicks::UNDEFINED 1703801581000                       # Cumulative time (in ticks) in various power states
system.cpu.dtb.rdAccesses                   111395448                       # TLB accesses on read requests
system.cpu.dtb.wrAccesses                     5363562                       # TLB accesses on write requests
system.cpu.dtb.rdMisses                        115974                       # TLB misses on read requests
system.cpu.dtb.wrMisses                          1462                       # TLB misses on write requests
system.cpu.dtb.walker.power_state.pwrStateResidencyTicks::UNDEFINED 1703801581000                       # Cumulative time (in ticks) in various power states
system.cpu.icache.demand_hits::.cpu.inst    413236042                       # number of demand (read+write) hits
system.cpu.icache.demand_hits::total        413236042                       # number of demand (read+write) hits
system.cpu.icache.overall_hits::.cpu.inst    413236042                       # number of overall hits
system.cpu.icache.overall_hits::total       413236042                       # number of overall hits
system.cpu.icache.demand_misses::.cpu.inst        18733                       # number of demand (read+write) misses
system.cpu.icache.demand_misses::total          18733                       # number of demand (read+write) misses
system.cpu.icache.overall_misses::.cpu.inst        18733                       # number of overall misses
system.cpu.icache.overall_misses::total         18733                       # number of overall misses
system.cpu.icache.demand_miss_latency::.cpu.inst   1243123000                       # number of demand (read+write) miss cycles
system.cpu.icache.demand_miss_latency::total   1243123000                       # number of demand (read+write) miss cycles
system.cpu.icache.overall_miss_latency::.cpu.inst   1243123000                       # number of overall miss cycles
system.cpu.icache.overall_miss_latency::total   1243123000                       # number of overall miss cycles
system.cpu.icache.demand_accesses::.cpu.inst    413254775                       # number of demand (read+write) accesses
system.cpu.icache.demand_accesses::total    413254775                       # number of demand (read+write) accesses
system.cpu.icache.overall_accesses::.cpu.inst    413254775                       # number of overall (read+write) accesses
system.cpu.icache.overall_accesses::total    413254775                       # number of overall (read+write) accesses
system.cpu.icache.demand_miss_rate::.cpu.inst     0.000045                       # miss rate for demand accesses
system.cpu.icache.demand_miss_rate::total     0.000045                       # miss rate for demand accesses
system.cpu.icache.overall_miss_rate::.cpu.inst     0.000045                       # miss rate for overall accesses
system.cpu.icache.overall_miss_rate::total     0.000045                       # miss rate for overall accesses
system.cpu.icache.demand_avg_miss_latency::.cpu.inst 66360.059788                       # average overall miss latency
system.cpu.icache.demand_avg_miss_latency::total 66360.059788                       # average overall miss latency
system.cpu.icache.overall_avg_miss_latency::.cpu.inst 66360.059788                       # average overall miss latency
system.cpu.icache.overall_avg_miss_latency::total 66360.059788                       # average overall miss latency
system.cpu.icache.blocked_cycles::no_mshrs            0                       # number of cycles access was blocked
system.cpu.icache.blocked_cycles::no_targets            0                       # number of cycles access was blocked
system.cpu.icache.blocked::no_mshrs                 0                       # number of cycles access was blocked
system.cpu.icache.blocked::no_targets               0                       # number of cycles access was blocked
system.cpu.icache.avg_blocked_cycles::no_mshrs          nan                       # average number of cycles each access was blocked
system.cpu.icache.avg_blocked_cycles::no_targets          nan                       # average number of cycles each access was blocked
system.cpu.icache.demand_mshr_misses::.cpu.inst        18733                       # number of demand (read+write) MSHR misses
system.cpu.icache.demand_mshr_misses::total        18733                       # number of demand (read+write) MSHR misses
system.cpu.icache.overall_mshr_misses::.cpu.inst        18733                       # number of overall MSHR misses
system.cpu.icache.overall_mshr_misses::total        18733                       # number of overall MSHR misses
system.cpu.icache.demand_mshr_miss_latency::.cpu.inst   1205657000                       # number of demand (read+write) MSHR miss cycles
system.cpu.icache.demand_mshr_miss_latency::total   1205657000                       # number of demand (read+write) MSHR miss cycles
system.cpu.icache.overall_mshr_miss_latency::.cpu.inst   1205657000                       # number of overall MSHR miss cycles
system.cpu.icache.overall_mshr_miss_latency::total   1205657000                       # number of overall MSHR miss cycles
system.cpu.icache.demand_mshr_miss_rate::.cpu.inst     0.000045                       # mshr miss rate for demand accesses
system.cpu.icache.demand_mshr_miss_rate::total     0.000045                       # mshr miss rate for demand accesses
system.cpu.icache.overall_mshr_miss_rate::.cpu.inst     0.000045                       # mshr miss rate for overall accesses
system.cpu.icache.overall_mshr_miss_rate::total     0.000045                       # mshr miss rate for overall accesses
system.cpu.icache.demand_avg_mshr_miss_latency::.cpu.inst 64360.059788                       # average overall mshr miss latency
system.cpu.icache.demand_avg_mshr_miss_latency::total 64360.059788                       # average overall mshr miss latency
system.cpu.icache.overall_avg_mshr_miss_latency::.cpu.inst 64360.059788                       # average overall mshr miss latency
system.cpu.icache.overall_avg_mshr_miss_latency::total 64360.059788                       # average overall mshr miss latency
system.cpu.icache.replacements                  18477                       # number of replacements
system.cpu.icache.ReadReq_hits::.cpu.inst    413236042                       # number of ReadReq hits
system.cpu.icache.ReadReq_hits::total       413236042                       # number of ReadReq hits
system.cpu.icache.ReadReq_misses::.cpu.inst        18733                       # number of ReadReq misses
system.cpu.icache.ReadReq_misses::total         18733                       # number of ReadReq misses
system.cpu.icache.ReadReq_miss_latency::.cpu.inst   1243123000                       # number of ReadReq miss cycles
system.cpu.icache.ReadReq_miss_latency::total   1243123000                       # number of ReadReq miss cycles
system.cpu.icache.ReadReq_accesses::.cpu.inst    413254775                       # number of ReadReq accesses(hits+misses)
system.cpu.icache.ReadReq_accesses::total    413254775                       # number of ReadReq accesses(hits+misses)
system.cpu.icache.ReadReq_miss_rate::.cpu.inst     0.000045                       # miss rate for ReadReq accesses
system.cpu.icache.ReadReq_miss_rate::total     0.000045                       # miss rate for ReadReq accesses
system.cpu.icache.ReadReq_avg_miss_latency::.cpu.inst 66360.059788                       # average ReadReq miss latency
system.cpu.icache.ReadReq_avg_miss_latency::total 66360.059788                       # average ReadReq miss latency
system.cpu.icache.ReadReq_mshr_misses::.cpu.inst        18733                       # number of ReadReq MSHR misses
system.cpu.icache.ReadReq_mshr_misses::total        18733                       # number of ReadReq MSHR misses
system.cpu.icache.ReadReq_mshr_miss_latency::.cpu.inst   1205657000                       # number of ReadReq MSHR miss cycles
system.cpu.icache.ReadReq_mshr_miss_latency::total   1205657000                       # number of ReadReq MSHR miss cycles
system.cpu.icache.ReadReq_mshr_miss_rate::.cpu.inst     0.000045                       # mshr miss rate for ReadReq accesses
system.cpu.icache.ReadReq_mshr_miss_rate::total     0.000045                       # mshr miss rate for ReadReq accesses
system.cpu.icache.ReadReq_avg_mshr_miss_latency::.cpu.inst 64360.059788                       # average ReadReq mshr miss latency
system.cpu.icache.ReadReq_avg_mshr_miss_latency::total 64360.059788                       # average ReadReq mshr miss latency
system.cpu.icache.power_state.pwrStateResidencyTicks::UNDEFINED 1703801581000                       # Cumulative time (in ticks) in various power states
system.cpu.icache.tags.tagsinuse           255.992299                       # Cycle average of tags in use
system.cpu.icache.tags.total_refs           413254775                       # Total number of references to valid blocks.
system.cpu.icache.tags.sampled_refs             18733                       # Sample count of references to valid blocks.
system.cpu.icache.tags.avg_refs          22060.255965                       # Average number of references to valid blocks.
system.cpu.icache.tags.warmup_cycle            107000                       # Cycle when the warmup percentage was hit.
system.cpu.icache.tags.occ_blocks::.cpu.inst   255.992299                       # Average occupied blocks per requestor
system.cpu.icache.tags.occ_percent::.cpu.inst     0.999970                       # Average percentage of cache occupancy
system.cpu.icache.tags.occ_percent::total     0.999970                       # Average percentage of cache occupancy
system.cpu.icache.tags.occ_task_id_blocks::1024          256                       # Occupied blocks per task id
system.cpu.icache.tags.age_task_id_blocks_1024::0           35                       # Occupied blocks per task id
system.cpu.icache.tags.age_task_id_blocks_1024::1          116                       # Occupied blocks per task id
system.cpu.icache.tags.age_task_id_blocks_1024::2           98                       # Occupied blocks per task id
system.cpu.icache.tags.age_task_id_blocks_1024::4            7                       # Occupied blocks per task id
system.cpu.icache.tags.occ_task_id_percent::1024            1                       # Percentage of cache occupancy per task id
system.cpu.icache.tags.tag_accesses         826528283                       # Number of tag accesses
system.cpu.icache.tags.data_accesses        826528283                       # Number of data accesses
system.cpu.icache.tags.power_state.pwrStateResidencyTicks::UNDEFINED 1703801581000                       # Cumulative time (in ticks) in various power states
system.cpu.interrupts.clk_domain.clock          16000                       # Clock period in ticks
system.cpu.itb.rdAccesses                           0                       # TLB accesses on read requests
system.cpu.itb.wrAccesses                   413254775                       # TLB accesses on write requests
system.cpu.itb.rdMisses                             0                       # TLB misses on read requests
system.cpu.itb.wrMisses                           110                       # TLB misses on write requests
system.cpu.itb.walker.power_state.pwrStateResidencyTicks::UNDEFINED 1703801581000                       # Cumulative time (in ticks) in various power states
system.cpu.power_state.pwrStateResidencyTicks::ON 1703801581000                       # Cumulative time (in ticks) in various power states
system.cpu.thread_0.numInsts                        0                       # Number of Instructions committed
system.cpu.thread_0.numOps                          0                       # Number of Ops committed
system.cpu.thread_0.numMemRefs                      0                       # Number of Memory References
system.l2bus.trans_dist::ReadResp             6509509                       # Transaction distribution
system.l2bus.trans_dist::WritebackDirty        698400                       # Transaction distribution
system.l2bus.trans_dist::CleanEvict          12390410                       # Transaction distribution
system.l2bus.trans_dist::ReadExReq             117971                       # Transaction distribution
system.l2bus.trans_dist::ReadExResp            117971                       # Transaction distribution
system.l2bus.trans_dist::ReadSharedReq        6509509                       # Transaction distribution
system.l2bus.pkt_count_system.cpu.icache.mem_side_port::system.l2cache.cpu_side_port        55943                       # Packet count per connected requestor and responder (bytes)
system.l2bus.pkt_count_system.cpu.dcache.mem_side_port::system.l2cache.cpu_side_port     19825217                       # Packet count per connected requestor and responder (bytes)
system.l2bus.pkt_count::total                19881160                       # Packet count per connected requestor and responder (bytes)
system.l2bus.pkt_size_system.cpu.icache.mem_side_port::system.l2cache.cpu_side_port      1198912                       # Cumulative packet size per connected requestor and responder (bytes)
system.l2bus.pkt_size_system.cpu.dcache.mem_side_port::system.l2cache.cpu_side_port    448796608                       # Cumulative packet size per connected requestor and responder (bytes)
system.l2bus.pkt_size::total                449995520                       # Cumulative packet size per connected requestor and responder (bytes)
system.l2bus.snoops                           6462610                       # Total snoops (count)
system.l2bus.snoopTraffic                    18860800                       # Total snoop traffic (bytes)
system.l2bus.snoop_fanout::samples           13090090                       # Request fanout histogram
system.l2bus.snoop_fanout::mean              0.006519                       # Request fanout histogram
system.l2bus.snoop_fanout::stdev             0.080474                       # Request fanout histogram
system.l2bus.snoop_fanout::underflows               0      0.00%      0.00% # Request fanout histogram
system.l2bus.snoop_fanout::0                 13004762     99.35%     99.35% # Request fanout histogram
system.l2bus.snoop_fanout::1                    85328      0.65%    100.00% # Request fanout histogram
system.l2bus.snoop_fanout::2                        0      0.00%    100.00% # Request fanout histogram
system.l2bus.snoop_fanout::overflows                0      0.00%    100.00% # Request fanout histogram
system.l2bus.snoop_fanout::min_value                0                       # Request fanout histogram
system.l2bus.snoop_fanout::max_value                1                       # Request fanout histogram
system.l2bus.snoop_fanout::total             13090090                       # Request fanout histogram
system.l2bus.power_state.pwrStateResidencyTicks::UNDEFINED 1703801581000                       # Cumulative time (in ticks) in various power states
system.l2bus.reqLayer0.occupancy          14061080000                       # Layer occupancy (ticks)
system.l2bus.reqLayer0.utilization                0.8                       # Layer utilization (%)
system.l2bus.respLayer0.occupancy            56199000                       # Layer occupancy (ticks)
system.l2bus.respLayer0.utilization               0.0                       # Layer utilization (%)
system.l2bus.respLayer1.occupancy         19826241000                       # Layer occupancy (ticks)
system.l2bus.respLayer1.utilization               1.2                       # Layer utilization (%)
system.l2cache.demand_hits::.cpu.inst            8965                       # number of demand (read+write) hits
system.l2cache.demand_hits::.cpu.data          167756                       # number of demand (read+write) hits
system.l2cache.demand_hits::total              176721                       # number of demand (read+write) hits
system.l2cache.overall_hits::.cpu.inst           8965                       # number of overall hits
system.l2cache.overall_hits::.cpu.data         167756                       # number of overall hits
system.l2cache.overall_hits::total             176721                       # number of overall hits
system.l2cache.demand_misses::.cpu.inst          9768                       # number of demand (read+write) misses
system.l2cache.demand_misses::.cpu.data       6440991                       # number of demand (read+write) misses
system.l2cache.demand_misses::total           6450759                       # number of demand (read+write) misses
system.l2cache.overall_misses::.cpu.inst         9768                       # number of overall misses
system.l2cache.overall_misses::.cpu.data      6440991                       # number of overall misses
system.l2cache.overall_misses::total          6450759                       # number of overall misses
system.l2cache.demand_miss_latency::.cpu.inst    961147000                       # number of demand (read+write) miss cycles
system.l2cache.demand_miss_latency::.cpu.data 619247823000                       # number of demand (read+write) miss cycles
system.l2cache.demand_miss_latency::total 620208970000                       # number of demand (read+write) miss cycles
system.l2cache.overall_miss_latency::.cpu.inst    961147000                       # number of overall miss cycles
system.l2cache.overall_miss_latency::.cpu.data 619247823000                       # number of overall miss cycles
system.l2cache.overall_miss_latency::total 620208970000                       # number of overall miss cycles
system.l2cache.demand_accesses::.cpu.inst        18733                       # number of demand (read+write) accesses
system.l2cache.demand_accesses::.cpu.data      6608747                       # number of demand (read+write) accesses
system.l2cache.demand_accesses::total         6627480                       # number of demand (read+write) accesses
system.l2cache.overall_accesses::.cpu.inst        18733                       # number of overall (read+write) accesses
system.l2cache.overall_accesses::.cpu.data      6608747                       # number of overall (read+write) accesses
system.l2cache.overall_accesses::total        6627480                       # number of overall (read+write) accesses
system.l2cache.demand_miss_rate::.cpu.inst     0.521433                       # miss rate for demand accesses
system.l2cache.demand_miss_rate::.cpu.data     0.974616                       # miss rate for demand accesses
system.l2cache.demand_miss_rate::total       0.973335                       # miss rate for demand accesses
system.l2cache.overall_miss_rate::.cpu.inst     0.521433                       # miss rate for overall accesses
system.l2cache.overall_miss_rate::.cpu.data     0.974616                       # miss rate for overall accesses
system.l2cache.overall_miss_rate::total      0.973335                       # miss rate for overall accesses
system.l2cache.demand_avg_miss_latency::.cpu.inst 98397.522523                       # average overall miss latency
system.l2cache.demand_avg_miss_latency::.cpu.data 96141.699779                       # average overall miss latency
system.l2cache.demand_avg_miss_latency::total 96145.115637                       # average overall miss latency
system.l2cache.overall_avg_miss_latency::.cpu.inst 98397.522523                       # average overall miss latency
system.l2cache.overall_avg_miss_latency::.cpu.data 96141.699779                       # average overall miss latency
system.l2cache.overall_avg_miss_latency::total 96145.115637                       # average overall miss latency
system.l2cache.blocked_cycles::no_mshrs             0                       # number of cycles access was blocked
system.l2cache.blocked_cycles::no_targets            0                       # number of cycles access was blocked
system.l2cache.blocked::no_mshrs                    0                       # number of cycles access was blocked
system.l2cache.blocked::no_targets                  0                       # number of cycles access was blocked
system.l2cache.avg_blocked_cycles::no_mshrs          nan                       # average number of cycles each access was blocked
system.l2cache.avg_blocked_cycles::no_targets          nan                       # average number of cycles each access was blocked
system.l2cache.writebacks::.writebacks         294700                       # number of writebacks
system.l2cache.writebacks::total               294700                       # number of writebacks
system.l2cache.demand_mshr_misses::.cpu.inst         9768                       # number of demand (read+write) MSHR misses
system.l2cache.demand_mshr_misses::.cpu.data      6440991                       # number of demand (read+write) MSHR misses
system.l2cache.demand_mshr_misses::total      6450759                       # number of demand (read+write) MSHR misses
system.l2cache.overall_mshr_misses::.cpu.inst         9768                       # number of overall MSHR misses
system.l2cache.overall_mshr_misses::.cpu.data      6440991                       # number of overall MSHR misses
system.l2cache.overall_mshr_misses::total      6450759                       # number of overall MSHR misses
system.l2cache.demand_mshr_miss_latency::.cpu.inst    765787000                       # number of demand (read+write) MSHR miss cycles
system.l2cache.demand_mshr_miss_latency::.cpu.data 490428003000                       # number of demand (read+write) MSHR miss cycles
system.l2cache.demand_mshr_miss_latency::total 491193790000                       # number of demand (read+write) MSHR miss cycles
system.l2cache.overall_mshr_miss_latency::.cpu.inst    765787000                       # number of overall MSHR miss cycles
system.l2cache.overall_mshr_miss_latency::.cpu.data 490428003000                       # number of overall MSHR miss cycles
system.l2cache.overall_mshr_miss_latency::total 491193790000                       # number of overall MSHR miss cycles
system.l2cache.demand_mshr_miss_rate::.cpu.inst     0.521433                       # mshr miss rate for demand accesses
system.l2cache.demand_mshr_miss_rate::.cpu.data     0.974616                       # mshr miss rate for demand accesses
system.l2cache.demand_mshr_miss_rate::total     0.973335                       # mshr miss rate for demand accesses
system.l2cache.overall_mshr_miss_rate::.cpu.inst     0.521433                       # mshr miss rate for overall accesses
system.l2cache.overall_mshr_miss_rate::.cpu.data     0.974616                       # mshr miss rate for overall accesses
system.l2cache.overall_mshr_miss_rate::total     0.973335                       # mshr miss rate for overall accesses
system.l2cache.demand_avg_mshr_miss_latency::.cpu.inst 78397.522523                       # average overall mshr miss latency
system.l2cache.demand_avg_mshr_miss_latency::.cpu.data 76141.699779                       # average overall mshr miss latency
system.l2cache.demand_avg_mshr_miss_latency::total 76145.115637                       # average overall mshr miss latency
system.l2cache.overall_avg_mshr_miss_latency::.cpu.inst 78397.522523                       # average overall mshr miss latency
system.l2cache.overall_avg_mshr_miss_latency::.cpu.data 76141.699779                       # average overall mshr miss latency
system.l2cache.overall_avg_mshr_miss_latency::total 76145.115637                       # average overall mshr miss latency
system.l2cache.replacements                   6398720                       # number of replacements
system.l2cache.WritebackDirty_hits::.writebacks       403507                       # number of WritebackDirty hits
system.l2cache.WritebackDirty_hits::total       403507                       # number of WritebackDirty hits
system.l2cache.WritebackDirty_misses::.writebacks          193                       # number of WritebackDirty misses
system.l2cache.WritebackDirty_misses::total          193                       # number of WritebackDirty misses
system.l2cache.WritebackDirty_accesses::.writebacks       403700                       # number of WritebackDirty accesses(hits+misses)
system.l2cache.WritebackDirty_accesses::total       403700                       # number of WritebackDirty accesses(hits+misses)
system.l2cache.WritebackDirty_miss_rate::.writebacks     0.000478                       # miss rate for WritebackDirty accesses
system.l2cache.WritebackDirty_miss_rate::total     0.000478                       # miss rate for WritebackDirty accesses
system.l2cache.WritebackDirty_mshr_misses::.writebacks          193                       # number of WritebackDirty MSHR misses
system.l2cache.WritebackDirty_mshr_misses::total          193                       # number of WritebackDirty MSHR misses
system.l2cache.WritebackDirty_mshr_miss_rate::.writebacks     0.000478                       # mshr miss rate for WritebackDirty accesses
system.l2cache.WritebackDirty_mshr_miss_rate::total     0.000478                       # mshr miss rate for WritebackDirty accesses
system.l2cache.CleanEvict_mshr_misses::.writebacks        65009                       # number of CleanEvict MSHR misses
system.l2cache.CleanEvict_mshr_misses::total        65009                       # number of CleanEvict MSHR misses
system.l2cache.CleanEvict_mshr_miss_rate::.writebacks          inf                       # mshr miss rate for CleanEvict accesses
system.l2cache.CleanEvict_mshr_miss_rate::total          inf                       # mshr miss rate for CleanEvict accesses
system.l2cache.ReadExReq_hits::.cpu.data        49845                       # number of ReadExReq hits
system.l2cache.ReadExReq_hits::total            49845                       # number of ReadExReq hits
system.l2cache.ReadExReq_misses::.cpu.data        68126                       # number of ReadExReq misses
system.l2cache.ReadExReq_misses::total          68126                       # number of ReadExReq misses
system.l2cache.ReadExReq_miss_latency::.cpu.data   7047333000                       # number of ReadExReq miss cycles
system.l2cache.ReadExReq_miss_latency::total   7047333000                       # number of ReadExReq miss cycles
system.l2cache.ReadExReq_accesses::.cpu.data       117971                       # number of ReadExReq accesses(hits+misses)
system.l2cache.ReadExReq_accesses::total       117971                       # number of ReadExReq accesses(hits+misses)
system.l2cache.ReadExReq_miss_rate::.cpu.data     0.577481                       # miss rate for ReadExReq accesses
system.l2cache.ReadExReq_miss_rate::total     0.577481                       # miss rate for ReadExReq accesses
system.l2cache.ReadExReq_avg_miss_latency::.cpu.data 103445.571441                       # average ReadExReq miss latency
system.l2cache.ReadExReq_avg_miss_latency::total 103445.571441                       # average ReadExReq miss latency
system.l2cache.ReadExReq_mshr_misses::.cpu.data        68126                       # number of ReadExReq MSHR misses
system.l2cache.ReadExReq_mshr_misses::total        68126                       # number of ReadExReq MSHR misses
system.l2cache.ReadExReq_mshr_miss_latency::.cpu.data   5684813000                       # number of ReadExReq MSHR miss cycles
system.l2cache.ReadExReq_mshr_miss_latency::total   5684813000                       # number of ReadExReq MSHR miss cycles
system.l2cache.ReadExReq_mshr_miss_rate::.cpu.data     0.577481                       # mshr miss rate for ReadExReq accesses
system.l2cache.ReadExReq_mshr_miss_rate::total     0.577481                       # mshr miss rate for ReadExReq accesses
system.l2cache.ReadExReq_avg_mshr_miss_latency::.cpu.data 83445.571441                       # average ReadExReq mshr miss latency
system.l2cache.ReadExReq_avg_mshr_miss_latency::total 83445.571441                       # average ReadExReq mshr miss latency
system.l2cache.ReadSharedReq_hits::.cpu.inst         8965                       # number of ReadSharedReq hits
system.l2cache.ReadSharedReq_hits::.cpu.data       117911                       # number of ReadSharedReq hits
system.l2cache.ReadSharedReq_hits::total       126876                       # number of ReadSharedReq hits
system.l2cache.ReadSharedReq_misses::.cpu.inst         9768                       # number of ReadSharedReq misses
system.l2cache.ReadSharedReq_misses::.cpu.data      6372865                       # number of ReadSharedReq misses
system.l2cache.ReadSharedReq_misses::total      6382633                       # number of ReadSharedReq misses
system.l2cache.ReadSharedReq_miss_latency::.cpu.inst    961147000                       # number of ReadSharedReq miss cycles
system.l2cache.ReadSharedReq_miss_latency::.cpu.data 612200490000                       # number of ReadSharedReq miss cycles
system.l2cache.ReadSharedReq_miss_latency::total 613161637000                       # number of ReadSharedReq miss cycles
system.l2cache.ReadSharedReq_accesses::.cpu.inst        18733                       # number of ReadSharedReq accesses(hits+misses)
system.l2cache.ReadSharedReq_accesses::.cpu.data      6490776                       # number of ReadSharedReq accesses(hits+misses)
system.l2cache.ReadSharedReq_accesses::total      6509509                       # number of ReadSharedReq accesses(hits+misses)
system.l2cache.ReadSharedReq_miss_rate::.cpu.inst     0.521433                       # miss rate for ReadSharedReq accesses
system.l2cache.ReadSharedReq_miss_rate::.cpu.data     0.981834                       # miss rate for ReadSharedReq accesses
system.l2cache.ReadSharedReq_miss_rate::total     0.980509                       # miss rate for ReadSharedReq accesses
system.l2cache.ReadSharedReq_avg_miss_latency::.cpu.inst 98397.522523                       # average ReadSharedReq miss latency
system.l2cache.ReadSharedReq_avg_miss_latency::.cpu.data 96063.621307                       # average ReadSharedReq miss latency
system.l2cache.ReadSharedReq_avg_miss_latency::total 96067.193116                       # average ReadSharedReq miss latency
system.l2cache.ReadSharedReq_mshr_misses::.cpu.inst         9768                       # number of ReadSharedReq MSHR misses
system.l2cache.ReadSharedReq_mshr_misses::.cpu.data      6372865                       # number of ReadSharedReq MSHR misses
system.l2cache.ReadSharedReq_mshr_misses::total      6382633                       # number of ReadSharedReq MSHR misses
system.l2cache.ReadSharedReq_mshr_miss_latency::.cpu.inst    765787000                       # number of ReadSharedReq MSHR miss cycles
system.l2cache.ReadSharedReq_mshr_miss_latency::.cpu.data 484743190000                       # number of ReadSharedReq MSHR miss cycles
system.l2cache.ReadSharedReq_mshr_miss_latency::total 485508977000                       # number of ReadSharedReq MSHR miss cycles
system.l2cache.ReadSharedReq_mshr_miss_rate::.cpu.inst     0.521433                       # mshr miss rate for ReadSharedReq accesses
system.l2cache.ReadSharedReq_mshr_miss_rate::.cpu.data     0.981834                       # mshr miss rate for ReadSharedReq accesses
system.l2cache.ReadSharedReq_mshr_miss_rate::total     0.980509                       # mshr miss rate for ReadSharedReq accesses
system.l2cache.ReadSharedReq_avg_mshr_miss_latency::.cpu.inst 78397.522523                       # average ReadSharedReq mshr miss latency
system.l2cache.ReadSharedReq_avg_mshr_miss_latency::.cpu.data 76063.621307                       # average ReadSharedReq mshr miss latency
system.l2cache.ReadSharedReq_avg_mshr_miss_latency::total 76067.193116                       # average ReadSharedReq mshr miss latency
system.l2cache.power_state.pwrStateResidencyTicks::UNDEFINED 1703801581000                       # Cumulative time (in ticks) in various power states
system.l2cache.replacement_policy.totalBypasses        64083                       # Total number of cache bypasses
system.l2cache.replacement_policy.effectiveBypasses           87                       # Bypasses that correctly skipped non-reused blocks
system.l2cache.replacement_policy.ineffectiveBypasses        28288                       # Bypasses that incorrectly skipped requested blocks
system.l2cache.replacement_policy.virtualEffectiveBypasses         1016                       # Virtual bypasses correctly predicting non-reused blocks
system.l2cache.replacement_policy.virtualIneffectiveBypasses       304757                       # Virtual bypasses incorrectly predicting requested blocks
system.l2cache.tags.tagsinuse             8178.997587                       # Cycle average of tags in use
system.l2cache.tags.total_refs               13124588                       # Total number of references to valid blocks.
system.l2cache.tags.sampled_refs              6406912                       # Sample count of references to valid blocks.
system.l2cache.tags.avg_refs                 2.048504                       # Average number of references to valid blocks.
system.l2cache.tags.warmup_cycle                86000                       # Cycle when the warmup percentage was hit.
system.l2cache.tags.occ_blocks::.writebacks    24.733793                       # Average occupied blocks per requestor
system.l2cache.tags.occ_blocks::.cpu.inst    10.465863                       # Average occupied blocks per requestor
system.l2cache.tags.occ_blocks::.cpu.data  8143.797930                       # Average occupied blocks per requestor
system.l2cache.tags.occ_percent::.writebacks     0.003019                       # Average percentage of cache occupancy
system.l2cache.tags.occ_percent::.cpu.inst     0.001278                       # Average percentage of cache occupancy
system.l2cache.tags.occ_percent::.cpu.data     0.994116                       # Average percentage of cache occupancy
system.l2cache.tags.occ_percent::total       0.998413                       # Average percentage of cache occupancy
system.l2cache.tags.occ_task_id_blocks::1024         8192                       # Occupied blocks per task id
system.l2cache.tags.age_task_id_blocks_1024::0           59                       # Occupied blocks per task id
system.l2cache.tags.age_task_id_blocks_1024::1          145                       # Occupied blocks per task id
system.l2cache.tags.age_task_id_blocks_1024::2         2159                       # Occupied blocks per task id
system.l2cache.tags.age_task_id_blocks_1024::3         5829                       # Occupied blocks per task id
system.l2cache.tags.occ_task_id_percent::1024            1                       # Percentage of cache occupancy per task id
system.l2cache.tags.tag_accesses            112436352                       # Number of tag accesses
system.l2cache.tags.data_accesses           112436352                       # Number of data accesses
system.l2cache.tags.power_state.pwrStateResidencyTicks::UNDEFINED 1703801581000                       # Cumulative time (in ticks) in various power states
system.mem_ctrl.avgPriority_.writebacks::samples    294892.00                       # Average QoS priority value for accepted requests
system.mem_ctrl.avgPriority_.cpu.inst::samples      9768.00                       # Average QoS priority value for accepted requests
system.mem_ctrl.avgPriority_.cpu.data::samples   6430095.00                       # Average QoS priority value for accepted requests
system.mem_ctrl.priorityMinLatency       0.000000018750                       # per QoS priority minimum request to response latency (s)
system.mem_ctrl.priorityMaxLatency       0.005732014500                       # per QoS priority maximum request to response latency (s)
system.mem_ctrl.numReadWriteTurnArounds         17168                       # Number of turnarounds from READ to WRITE
system.mem_ctrl.numWriteReadTurnArounds         17168                       # Number of turnarounds from WRITE to READ
system.mem_ctrl.numStayReadState             13604323                       # Number of times bus staying in READ state
system.mem_ctrl.numStayWriteState              278059                       # Number of times bus staying in WRITE state
system.mem_ctrl.readReqs                      6450759                       # Number of read requests accepted
system.mem_ctrl.writeReqs                      294893                       # Number of write requests accepted
system.mem_ctrl.readBursts                    6450759                       # Number of controller read bursts, including those serviced by the write queue
system.mem_ctrl.writeBursts                    294893                       # Number of controller write bursts, including those merged in the write queue
system.mem_ctrl.servicedByWrQ                   10896                       # Number of controller read bursts serviced by the write queue
system.mem_ctrl.mergedWrBursts                      1                       # Number of controller write bursts merged with an existing one
system.mem_ctrl.neitherReadNorWriteReqs             0                       # Number of requests that are neither read nor write
system.mem_ctrl.avgRdQLen                        1.00                       # Average read queue length when enqueuing
system.mem_ctrl.avgWrQLen                       25.00                       # Average write queue length when enqueuing
system.mem_ctrl.numRdRetry                          0                       # Number of times read queue was full causing retry
system.mem_ctrl.numWrRetry                          0                       # Number of times write queue was full causing retry
system.mem_ctrl.readPktSize::0                      0                       # Read request sizes (log2)
system.mem_ctrl.readPktSize::1                      0                       # Read request sizes (log2)
system.mem_ctrl.readPktSize::2                      0                       # Read request sizes (log2)
system.mem_ctrl.readPktSize::3                      0                       # Read request sizes (log2)
system.mem_ctrl.readPktSize::4                      0                       # Read request sizes (log2)
system.mem_ctrl.readPktSize::5                      0                       # Read request sizes (log2)
system.mem_ctrl.readPktSize::6                6450759                       # Read request sizes (log2)
system.mem_ctrl.writePktSize::0                     0                       # Write request sizes (log2)
system.mem_ctrl.writePktSize::1                     0                       # Write request sizes (log2)
system.mem_ctrl.writePktSize::2                     0                       # Write request sizes (log2)
system.mem_ctrl.writePktSize::3                     0                       # Write request sizes (log2)
system.mem_ctrl.writePktSize::4                     0                       # Write request sizes (log2)
system.mem_ctrl.writePktSize::5                     0                       # Write request sizes (log2)
system.mem_ctrl.writePktSize::6                294893                       # Write request sizes (log2)
system.mem_ctrl.rdQLenPdf::0                  6439781                       # What read queue length does an incoming req see
system.mem_ctrl.rdQLenPdf::1                       82                       # What read queue length does an incoming req see
system.mem_ctrl.rdQLenPdf::2                        0                       # What read queue length does an incoming req see
system.mem_ctrl.rdQLenPdf::3                        0                       # What read queue length does an incoming req see
system.mem_ctrl.rdQLenPdf::4                        0                       # What read queue length does an incoming req see
system.mem_ctrl.rdQLenPdf::5                        0                       # What read queue length does an incoming req see
system.mem_ctrl.rdQLenPdf::6                        0                       # What read queue length does an incoming req see
system.mem_ctrl.rdQLenPdf::7                        0                       # What read queue length does an incoming req see
system.mem_ctrl.rdQLenPdf::8                        0                       # What read queue length does an incoming req see
system.mem_ctrl.rdQLenPdf::9                        0                       # What read queue length does an incoming req see
system.mem_ctrl.rdQLenPdf::10                       0                       # What read queue length does an incoming req see
system.mem_ctrl.rdQLenPdf::11                       0                       # What read queue length does an incoming req see
system.mem_ctrl.rdQLenPdf::12                       0                       # What read queue length does an incoming req see
system.mem_ctrl.rdQLenPdf::13                       0                       # What read queue length does an incoming req see
system.mem_ctrl.rdQLenPdf::14                       0                       # What read queue length does an incoming req see
system.mem_ctrl.rdQLenPdf::15                       0                       # What read queue length does an incoming req see
system.mem_ctrl.rdQLenPdf::16                       0                       # What read queue length does an incoming req see
system.mem_ctrl.rdQLenPdf::17                       0                       # What read queue length does an incoming req see
system.mem_ctrl.rdQLenPdf::18                       0                       # What read queue length does an incoming req see
system.mem_ctrl.rdQLenPdf::19                       0                       # What read queue length does an incoming req see
system.mem_ctrl.rdQLenPdf::20                       0                       # What read queue length does an incoming req see
system.mem_ctrl.rdQLenPdf::21                       0                       # What read queue length does an incoming req see
system.mem_ctrl.rdQLenPdf::22                       0                       # What read queue length does an incoming req see
system.mem_ctrl.rdQLenPdf::23                       0                       # What read queue length does an incoming req see
system.mem_ctrl.rdQLenPdf::24                       0                       # What read queue length does an incoming req see
system.mem_ctrl.rdQLenPdf::25                       0                       # What read queue length does an incoming req see
system.mem_ctrl.rdQLenPdf::26                       0                       # What read queue length does an incoming req see
system.mem_ctrl.rdQLenPdf::27                       0                       # What read queue length does an incoming req see
system.mem_ctrl.rdQLenPdf::28                       0                       # What read queue length does an incoming req see
system.mem_ctrl.rdQLenPdf::29                       0                       # What read queue length does an incoming req see
system.mem_ctrl.rdQLenPdf::30                       0                       # What read queue length does an incoming req see
system.mem_ctrl.rdQLenPdf::31                       0                       # What read queue length does an incoming req see
system.mem_ctrl.wrQLenPdf::0                        1                       # What write queue length does an incoming req see
system.mem_ctrl.wrQLenPdf::1                        1                       # What write queue length does an incoming req see
system.mem_ctrl.wrQLenPdf::2                        1                       # What write queue length does an incoming req see
system.mem_ctrl.wrQLenPdf::3                        1                       # What write queue length does an incoming req see
system.mem_ctrl.wrQLenPdf::4                        1                       # What write queue length does an incoming req see
system.mem_ctrl.wrQLenPdf::5                        1                       # What write queue length does an incoming req see
system.mem_ctrl.wrQLenPdf::6                        1                       # What write queue length does an incoming req see
system.mem_ctrl.wrQLenPdf::7                        1                       # What write queue length does an incoming req see
system.mem_ctrl.wrQLenPdf::8                        1                       # What write queue length does an incoming req see
system.mem_ctrl.wrQLenPdf::9                        1                       # What write queue length does an incoming req see
system.mem_ctrl.wrQLenPdf::10                       1                       # What write queue length does an incoming req see
system.mem_ctrl.wrQLenPdf::11                       1                       # What write queue length does an incoming req see
system.mem_ctrl.wrQLenPdf::12                       1                       # What write queue length does an incoming req see
system.mem_ctrl.wrQLenPdf::13                       1                       # What write queue length does an incoming req see
system.mem_ctrl.wrQLenPdf::14                       1                       # What write queue length does an incoming req see
system.mem_ctrl.wrQLenPdf::15                   10038                       # What write queue length does an incoming req see
system.mem_ctrl.wrQLenPdf::16                   10104                       # What write queue length does an incoming req see
system.mem_ctrl.wrQLenPdf::17                   17158                       # What write queue length does an incoming req see
system.mem_ctrl.wrQLenPdf::18                   17169                       # What write queue length does an incoming req see
system.mem_ctrl.wrQLenPdf::19                   17171                       # What write queue length does an incoming req see
system.mem_ctrl.wrQLenPdf::20                   17170                       # What write queue length does an incoming req see
system.mem_ctrl.wrQLenPdf::21                   17179                       # What write queue length does an incoming req see
system.mem_ctrl.wrQLenPdf::22                   17177                       # What write queue length does an incoming req see
system.mem_ctrl.wrQLenPdf::23                   17187                       # What write queue length does an incoming req see
system.mem_ctrl.wrQLenPdf::24                   17171                       # What write queue length does an incoming req see
system.mem_ctrl.wrQLenPdf::25                   17169                       # What write queue length does an incoming req see
system.mem_ctrl.wrQLenPdf::26                   17171                       # What write queue length does an incoming req see
system.mem_ctrl.wrQLenPdf::27                   17168                       # What write queue length does an incoming req see
system.mem_ctrl.wrQLenPdf::28                   17169                       # What write queue length does an incoming req see
system.mem_ctrl.wrQLenPdf::29                   17171                       # What write queue length does an incoming req see
system.mem_ctrl.wrQLenPdf::30                   17168                       # What write queue length does an incoming req see
system.mem_ctrl.wrQLenPdf::31                   17169                       # What write queue length does an incoming req see
system.mem_ctrl.wrQLenPdf::32                   17168                       # What write queue length does an incoming req see
system.mem_ctrl.wrQLenPdf::33                       0                       # What write queue length does an incoming req see
system.mem_ctrl.wrQLenPdf::34                       0                       # What write queue length does an incoming req see
system.mem_ctrl.wrQLenPdf::35                       0                       # What write queue length does an incoming req see
system.mem_ctrl.wrQLenPdf::36                       0                       # What write queue length does an incoming req see
system.mem_ctrl.wrQLenPdf::37                       0                       # What write queue length does an incoming req see
system.mem_ctrl.wrQLenPdf::38                       0                       # What write queue length does an incoming req see
system.mem_ctrl.wrQLenPdf::39                       0                       # What write queue length does an incoming req see
system.mem_ctrl.wrQLenPdf::40                       0                       # What write queue length does an incoming req see
system.mem_ctrl.wrQLenPdf::41                       0                       # What write queue length does an incoming req see
system.mem_ctrl.wrQLenPdf::42                       0                       # What write queue length does an incoming req see
system.mem_ctrl.wrQLenPdf::43                       0                       # What write queue length does an incoming req see
system.mem_ctrl.wrQLenPdf::44                       0                       # What write queue length does an incoming req see
system.mem_ctrl.wrQLenPdf::45                       0                       # What write queue length does an incoming req see
system.mem_ctrl.wrQLenPdf::46                       0                       # What write queue length does an incoming req see
system.mem_ctrl.wrQLenPdf::47                       0                       # What write queue length does an incoming req see
system.mem_ctrl.wrQLenPdf::48                       0                       # What write queue length does an incoming req see
system.mem_ctrl.wrQLenPdf::49                       0                       # What write queue length does an incoming req see
system.mem_ctrl.wrQLenPdf::50                       0                       # What write queue length does an incoming req see
system.mem_ctrl.wrQLenPdf::51                       0                       # What write queue length does an incoming req see
system.mem_ctrl.wrQLenPdf::52                       0                       # What write queue length does an incoming req see
system.mem_ctrl.wrQLenPdf::53                       0                       # What write queue length does an incoming req see
system.mem_ctrl.wrQLenPdf::54                       0                       # What write queue length does an incoming req see
system.mem_ctrl.wrQLenPdf::55                       0                       # What write queue length does an incoming req see
system.mem_ctrl.wrQLenPdf::56                       0                       # What write queue length does an incoming req see
system.mem_ctrl.wrQLenPdf::57                       0                       # What write queue length does an incoming req see
system.mem_ctrl.wrQLenPdf::58                       0                       # What write queue length does an incoming req see
system.mem_ctrl.wrQLenPdf::59                       0                       # What write queue length does an incoming req see
system.mem_ctrl.wrQLenPdf::60                       0                       # What write queue length does an incoming req see
system.mem_ctrl.wrQLenPdf::61                       0                       # What write queue length does an incoming req see
system.mem_ctrl.wrQLenPdf::62                       0                       # What write queue length does an incoming req see
system.mem_ctrl.wrQLenPdf::63                       0                       # What write queue length does an incoming req see
system.mem_ctrl.rdPerTurnAround::samples        17168                       # Reads before turning the bus around for writes
system.mem_ctrl.rdPerTurnAround::mean      374.817335                       # Reads before turning the bus around for writes
system.mem_ctrl.rdPerTurnAround::gmean      59.908567                       # Reads before turning the bus around for writes
system.mem_ctrl.rdPerTurnAround::stdev    1206.400884                       # Reads before turning the bus around for writes
system.mem_ctrl.rdPerTurnAround::0-511          15255     88.86%     88.86% # Reads before turning the bus around for writes
system.mem_ctrl.rdPerTurnAround::512-1023          506      2.95%     91.80% # Reads before turning the bus around for writes
system.mem_ctrl.rdPerTurnAround::1024-1535          226      1.32%     93.12% # Reads before turning the bus around for writes
system.mem_ctrl.rdPerTurnAround::1536-2047          113      0.66%     93.78% # Reads before turning the bus around for writes
system.mem_ctrl.rdPerTurnAround::2048-2559          302      1.76%     95.54% # Reads before turning the bus around for writes
system.mem_ctrl.rdPerTurnAround::2560-3071          347      2.02%     97.56% # Reads before turning the bus around for writes
system.mem_ctrl.rdPerTurnAround::4096-4607            3      0.02%     97.58% # Reads before turning the bus around for writes
system.mem_ctrl.rdPerTurnAround::5120-5631            1      0.01%     97.58% # Reads before turning the bus around for writes
system.mem_ctrl.rdPerTurnAround::5632-6143            3      0.02%     97.60% # Reads before turning the bus around for writes
system.mem_ctrl.rdPerTurnAround::6144-6655            1      0.01%     97.61% # Reads before turning the bus around for writes
system.mem_ctrl.rdPerTurnAround::6656-7167          378      2.20%     99.81% # Reads before turning the bus around for writes
system.mem_ctrl.rdPerTurnAround::7168-7679           20      0.12%     99.92% # Reads before turning the bus around for writes
system.mem_ctrl.rdPerTurnAround::7680-8191            1      0.01%     99.93% # Reads before turning the bus around for writes
system.mem_ctrl.rdPerTurnAround::8192-8703            1      0.01%     99.94% # Reads before turning the bus around for writes
system.mem_ctrl.rdPerTurnAround::8704-9215            8      0.05%     99.98% # Reads before turning the bus around for writes
system.mem_ctrl.rdPerTurnAround::9216-9727            1      0.01%     99.99% # Reads before turning the bus around for writes
system.mem_ctrl.rdPerTurnAround::10240-10751            2      0.01%    100.00% # Reads before turning the bus around for writes
system.mem_ctrl.rdPerTurnAround::total          17168                       # Reads before turning the bus around for writes
system.mem_ctrl.wrPerTurnAround::samples        17168                       # Writes before turning the bus around for reads
system.mem_ctrl.wrPerTurnAround::mean       17.175268                       # Writes before turning the bus around for reads
system.mem_ctrl.wrPerTurnAround::gmean      17.146559                       # Writes before turning the bus around for reads
system.mem_ctrl.wrPerTurnAround::stdev       0.986116                       # Writes before turning the bus around for reads
system.mem_ctrl.wrPerTurnAround::16              7067     41.16%     41.16% # Writes before turning the bus around for reads
[...]
system.mem_ctrl.requestorReadRate::.cpu.data 241534040.459374368191                       # Per-requestor bytes read from memory rate (Bytes/sec)
system.mem_ctrl.requestorWriteRate::.writebacks 11076031.511206820607                       # Per-requestor bytes write to memory rate (Bytes/sec)
system.mem_ctrl.requestorReadAccesses::.cpu.inst         9768                       # Per-requestor read serviced memory accesses
system.mem_ctrl.requestorReadAccesses::.cpu.data      6440991                       # Per-requestor read serviced memory accesses
system.mem_ctrl.requestorWriteAccesses::.writebacks       294893                       # Per-requestor write serviced memory accesses
system.mem_ctrl.requestorReadTotalLat::.cpu.inst    264344000                       # Per-requestor read total memory access latency
system.mem_ctrl.requestorReadTotalLat::.cpu.data 160174952250                       # Per-requestor read total memory access latency
system.mem_ctrl.requestorWriteTotalLat::.writebacks 41158941641250                       # Per-requestor write total memory access latency
system.mem_ctrl.requestorReadAvgLat::.cpu.inst     27062.24                       # Per-requestor read average memory access latency
system.mem_ctrl.requestorReadAvgLat::.cpu.data     24868.06                       # Per-requestor read average memory access latency
system.mem_ctrl.requestorWriteAvgLat::.writebacks 139572460.66                       # Per-requestor write average memory access latency
system.mem_ctrl.dram.bytes_read::.cpu.inst       625152                       # Number of bytes read from this memory
system.mem_ctrl.dram.bytes_read::.cpu.data    412223424                       # Number of bytes read from this memory
system.mem_ctrl.dram.bytes_read::total      412848576                       # Number of bytes read from this memory
system.mem_ctrl.dram.bytes_inst_read::.cpu.inst       625152                       # Number of instructions bytes read from this memory
system.mem_ctrl.dram.bytes_inst_read::total       625152                       # Number of instructions bytes read from this memory
system.mem_ctrl.dram.bytes_written::.writebacks     18873152                       # Number of bytes written to this memory
system.mem_ctrl.dram.bytes_written::total     18873152                       # Number of bytes written to this memory
system.mem_ctrl.dram.num_reads::.cpu.inst         9768                       # Number of read requests responded to by this memory
system.mem_ctrl.dram.num_reads::.cpu.data      6440991                       # Number of read requests responded to by this memory
system.mem_ctrl.dram.num_reads::total         6450759                       # Number of read requests responded to by this memory
system.mem_ctrl.dram.num_writes::.writebacks       294893                       # Number of write requests responded to by this memory
system.mem_ctrl.dram.num_writes::total         294893                       # Number of write requests responded to by this memory
system.mem_ctrl.dram.bw_read::.cpu.inst        366916                       # Total read bandwidth from this memory (bytes/s)
system.mem_ctrl.dram.bw_read::.cpu.data     241943328                       # Total read bandwidth from this memory (bytes/s)
system.mem_ctrl.dram.bw_read::total         242310244                       # Total read bandwidth from this memory (bytes/s)
system.mem_ctrl.dram.bw_inst_read::.cpu.inst       366916                       # Instruction read bandwidth from this memory (bytes/s)
system.mem_ctrl.dram.bw_inst_read::total       366916                       # Instruction read bandwidth from this memory (bytes/s)
system.mem_ctrl.dram.bw_write::.writebacks     11077083                       # Write bandwidth from this memory (bytes/s)
system.mem_ctrl.dram.bw_write::total         11077083                       # Write bandwidth from this memory (bytes/s)
system.mem_ctrl.dram.bw_total::.writebacks     11077083                       # Total bandwidth to/from this memory (bytes/s)
system.mem_ctrl.dram.bw_total::.cpu.inst       366916                       # Total bandwidth to/from this memory (bytes/s)
system.mem_ctrl.dram.bw_total::.cpu.data    241943328                       # Total bandwidth to/from this memory (bytes/s)
system.mem_ctrl.dram.bw_total::total        253387327                       # Total bandwidth to/from this memory (bytes/s)
system.mem_ctrl.dram.readBursts               6439863                       # Number of DRAM read bursts
system.mem_ctrl.dram.writeBursts               294865                       # Number of DRAM write bursts
system.mem_ctrl.dram.perBankRdBursts::0        432465                       # Per bank write bursts
system.mem_ctrl.dram.perBankRdBursts::1        388840                       # Per bank write bursts
system.mem_ctrl.dram.perBankRdBursts::2        378822                       # Per bank write bursts
system.mem_ctrl.dram.perBankRdBursts::3        378944                       # Per bank write bursts
system.mem_ctrl.dram.perBankRdBursts::4        380189                       # Per bank write bursts
system.mem_ctrl.dram.perBankRdBursts::5        403871                       # Per bank write bursts
system.mem_ctrl.dram.perBankRdBursts::6        438450                       # Per bank write bursts
system.mem_ctrl.dram.perBankRdBursts::7        405240                       # Per bank write bursts
system.mem_ctrl.dram.perBankRdBursts::8        406796                       # Per bank write bursts
system.mem_ctrl.dram.perBankRdBursts::9        375157                       # Per bank write bursts
system.mem_ctrl.dram.perBankRdBursts::10       378203                       # Per bank write bursts
system.mem_ctrl.dram.perBankRdBursts::11       378749                       # Per bank write bursts
system.mem_ctrl.dram.perBankRdBursts::12       395825                       # Per bank write bursts
system.mem_ctrl.dram.perBankRdBursts::13       431990                       # Per bank write bursts
system.mem_ctrl.dram.perBankRdBursts::14       432517                       # Per bank write bursts
system.mem_ctrl.dram.perBankRdBursts::15       433805                       # Per bank write bursts
system.mem_ctrl.dram.perBankWrBursts::0          5652                       # Per bank write bursts
system.mem_ctrl.dram.perBankWrBursts::1          5263                       # Per bank write bursts
system.mem_ctrl.dram.perBankWrBursts::2          5104                       # Per bank write bursts
system.mem_ctrl.dram.perBankWrBursts::3          5308                       # Per bank write bursts
system.mem_ctrl.dram.perBankWrBursts::4          6570                       # Per bank write bursts
system.mem_ctrl.dram.perBankWrBursts::5         29676                       # Per bank write bursts
system.mem_ctrl.dram.perBankWrBursts::6         51550                       # Per bank write bursts
system.mem_ctrl.dram.perBankWrBursts::7          6817                       # Per bank write bursts
system.mem_ctrl.dram.perBankWrBursts::8         40943                       # Per bank write bursts
system.mem_ctrl.dram.perBankWrBursts::9         53826                       # Per bank write bursts
system.mem_ctrl.dram.perBankWrBursts::10        56620                       # Per bank write bursts
system.mem_ctrl.dram.perBankWrBursts::11         5746                       # Per bank write bursts
system.mem_ctrl.dram.perBankWrBursts::12         4955                       # Per bank write bursts
system.mem_ctrl.dram.perBankWrBursts::13         5291                       # Per bank write bursts
system.mem_ctrl.dram.perBankWrBursts::14         5190                       # Per bank write bursts
system.mem_ctrl.dram.perBankWrBursts::15         6354                       # Per bank write bursts
system.mem_ctrl.dram.totQLat              39691865000                       # Total ticks spent queuing
system.mem_ctrl.dram.totBusLat            32199315000                       # Total ticks spent in databus transfers
system.mem_ctrl.dram.totMemAccLat        160439296250                       # Total ticks spent from burst creation until serviced by the DRAM
system.mem_ctrl.dram.avgQLat                  6163.46                       # Average queueing delay per DRAM burst
system.mem_ctrl.dram.avgBusLat                5000.00                       # Average bus latency per DRAM burst
system.mem_ctrl.dram.avgMemAccLat            24913.46                       # Average memory access latency per DRAM burst
system.mem_ctrl.dram.readRowHits              5527994                       # Number of row buffer hits during reads
system.mem_ctrl.dram.writeRowHits              238505                       # Number of row buffer hits during writes
system.mem_ctrl.dram.readRowHitRate             85.84                       # Row buffer hit rate for reads
system.mem_ctrl.dram.writeRowHitRate            80.89                       # Row buffer hit rate for writes
system.mem_ctrl.dram.bytesPerActivate::samples       968222                       # Bytes accessed per row activation
system.mem_ctrl.dram.bytesPerActivate::mean   445.167724                       # Bytes accessed per row activation
system.mem_ctrl.dram.bytesPerActivate::gmean   280.164970                       # Bytes accessed per row activation
system.mem_ctrl.dram.bytesPerActivate::stdev   359.959939                       # Bytes accessed per row activation
system.mem_ctrl.dram.bytesPerActivate::0-127       235455     24.32%     24.32% # Bytes accessed per row activation
system.mem_ctrl.dram.bytesPerActivate::128-255       155287     16.04%     40.36% # Bytes accessed per row activation
system.mem_ctrl.dram.bytesPerActivate::256-383        92076      9.51%     49.87% # Bytes accessed per row activation
system.mem_ctrl.dram.bytesPerActivate::384-511        98514     10.17%     60.04% # Bytes accessed per row activation
system.mem_ctrl.dram.bytesPerActivate::512-639        15897      1.64%     61.68% # Bytes accessed per row activation
system.mem_ctrl.dram.bytesPerActivate::640-767       171188     17.68%     79.36% # Bytes accessed per row activation
system.mem_ctrl.dram.bytesPerActivate::768-895        10264      1.06%     80.42% # Bytes accessed per row activation
system.mem_ctrl.dram.bytesPerActivate::896-1023         9183      0.95%     81.37% # Bytes accessed per row activation
system.mem_ctrl.dram.bytesPerActivate::1024-1151       180358     18.63%    100.00% # Bytes accessed per row activation
system.mem_ctrl.dram.bytesPerActivate::total       968222                       # Bytes accessed per row activation
system.mem_ctrl.dram.bytesRead              412151232                       # Total number of bytes read from DRAM
system.mem_ctrl.dram.bytesWritten            18871360                       # Total number of bytes written to DRAM
system.mem_ctrl.dram.avgRdBW               241.900956                       # Average DRAM read bandwidth in MiBytes/s
system.mem_ctrl.dram.avgWrBW                11.076032                       # Average DRAM write bandwidth in MiBytes/s
system.mem_ctrl.dram.peakBW                  12800.00                       # Theoretical peak bandwidth in MiByte/s
system.mem_ctrl.dram.busUtil                     1.98                       # Data bus utilization in percentage
system.mem_ctrl.dram.busUtilRead                 1.89                       # Data bus utilization in percentage for reads
system.mem_ctrl.dram.busUtilWrite                0.09                       # Data bus utilization in percentage for writes
system.mem_ctrl.dram.pageHitRate                85.62                       # Row buffer hit rate, read and write combined
system.mem_ctrl.dram.power_state.pwrStateResidencyTicks::UNDEFINED 1703801581000                       # Cumulative time (in ticks) in various power states
system.mem_ctrl.dram.rank0.actEnergy       2766428700                       # Energy for activate commands per rank (pJ)
system.mem_ctrl.dram.rank0.preEnergy       1470380340                       # Energy for precharge commands per rank (pJ)
system.mem_ctrl.dram.rank0.readEnergy     22896701940                       # Energy for read commands per rank (pJ)
system.mem_ctrl.dram.rank0.writeEnergy      605206800                       # Energy for write commands per rank (pJ)
system.mem_ctrl.dram.rank0.refreshEnergy 134496139440.000015                       # Energy for refresh commands per rank (pJ)
system.mem_ctrl.dram.rank0.actBackEnergy 555942870900                       # Energy for active background per rank (pJ)
system.mem_ctrl.dram.rank0.preBackEnergy 186097389600                       # Energy for precharge background per rank (pJ)
system.mem_ctrl.dram.rank0.actPowerDownEnergy            0                       # Energy for active power-down per rank (pJ)
system.mem_ctrl.dram.rank0.prePowerDownEnergy            0                       # Energy for precharge power-down per rank (pJ)
system.mem_ctrl.dram.rank0.selfRefreshEnergy            0                       # Energy for self refresh per rank (pJ)
system.mem_ctrl.dram.rank0.totalEnergy   904275117720                       # Total energy per rank (pJ)
system.mem_ctrl.dram.rank0.averagePower    530.739687                       # Core power per rank (mW)
system.mem_ctrl.dram.rank0.totalIdleTime            0                       # Total Idle time Per DRAM Rank
system.mem_ctrl.dram.rank0.pwrStateTime::IDLE 478592933000                       # Time in different power states
system.mem_ctrl.dram.rank0.pwrStateTime::REF  56893460000                       # Time in different power states
system.mem_ctrl.dram.rank0.pwrStateTime::SREF            0                       # Time in different power states
system.mem_ctrl.dram.rank0.pwrStateTime::PRE_PDN            0                       # Time in different power states
system.mem_ctrl.dram.rank0.pwrStateTime::ACT 1168315188000                       # Time in different power states
system.mem_ctrl.dram.rank0.pwrStateTime::ACT_PDN            0                       # Time in different power states
system.mem_ctrl.dram.rank1.actEnergy       4146726360                       # Energy for activate commands per rank (pJ)
system.mem_ctrl.dram.rank1.preEnergy       2204022150                       # Energy for precharge commands per rank (pJ)
system.mem_ctrl.dram.rank1.readEnergy     23083919880                       # Energy for read commands per rank (pJ)
system.mem_ctrl.dram.rank1.writeEnergy      933988500                       # Energy for write commands per rank (pJ)
system.mem_ctrl.dram.rank1.refreshEnergy 134496139440.000015                       # Energy for refresh commands per rank (pJ)
system.mem_ctrl.dram.rank1.actBackEnergy 572852189940                       # Energy for active background per rank (pJ)
system.mem_ctrl.dram.rank1.preBackEnergy 171857963040                       # Energy for precharge background per rank (pJ)
system.mem_ctrl.dram.rank1.actPowerDownEnergy            0                       # Energy for active power-down per rank (pJ)
system.mem_ctrl.dram.rank1.prePowerDownEnergy            0                       # Energy for precharge power-down per rank (pJ)
system.mem_ctrl.dram.rank1.selfRefreshEnergy            0                       # Energy for self refresh per rank (pJ)
system.mem_ctrl.dram.rank1.totalEnergy   909574949310                       # Total energy per rank (pJ)
system.mem_ctrl.dram.rank1.averagePower    533.850279                       # Core power per rank (mW)
system.mem_ctrl.dram.rank1.totalIdleTime            0                       # Total Idle time Per DRAM Rank
system.mem_ctrl.dram.rank1.pwrStateTime::IDLE 438889057250                       # Time in different power states
system.mem_ctrl.dram.rank1.pwrStateTime::REF  56893460000                       # Time in different power states
system.mem_ctrl.dram.rank1.pwrStateTime::SREF            0                       # Time in different power states
system.mem_ctrl.dram.rank1.pwrStateTime::PRE_PDN            0                       # Time in different power states
system.mem_ctrl.dram.rank1.pwrStateTime::ACT 1208019063750                       # Time in different power states
system.mem_ctrl.dram.rank1.pwrStateTime::ACT_PDN            0                       # Time in different power states
system.mem_ctrl.power_state.pwrStateResidencyTicks::UNDEFINED 1703801581000                       # Cumulative time (in ticks) in various power states
system.membus.trans_dist::ReadResp            6382633                       # Transaction distribution
system.membus.trans_dist::WritebackDirty       294893                       # Transaction distribution
system.membus.trans_dist::CleanEvict          6147591                       # Transaction distribution
system.membus.trans_dist::ReadExReq             68126                       # Transaction distribution
system.membus.trans_dist::ReadExResp            68126                       # Transaction distribution
system.membus.trans_dist::ReadSharedReq       6382633                       # Transaction distribution
system.membus.pkt_count_system.l2cache.mem_side_port::system.mem_ctrl.port     19344002                       # Packet count per connected requestor and responder (bytes)
system.membus.pkt_count_system.l2cache.mem_side_port::total     19344002                       # Packet count per connected requestor and responder (bytes)
system.membus.pkt_count::total               19344002                       # Packet count per connected requestor and responder (bytes)
system.membus.pkt_size_system.l2cache.mem_side_port::system.mem_ctrl.port    431721728                       # Cumulative packet size per connected requestor and responder (bytes)
system.membus.pkt_size_system.l2cache.mem_side_port::total    431721728                       # Cumulative packet size per connected requestor and responder (bytes)
system.membus.pkt_size::total               431721728                       # Cumulative packet size per connected requestor and responder (bytes)
system.membus.snoops                                0                       # Total snoops (count)
system.membus.snoopTraffic                          0                       # Total snoop traffic (bytes)
system.membus.snoop_fanout::samples           6450759                       # Request fanout histogram
system.membus.snoop_fanout::mean                    0                       # Request fanout histogram
system.membus.snoop_fanout::stdev                   0                       # Request fanout histogram
system.membus.snoop_fanout::underflows              0      0.00%      0.00% # Request fanout histogram
system.membus.snoop_fanout::0                 6450759    100.00%    100.00% # Request fanout histogram
system.membus.snoop_fanout::1                       0      0.00%    100.00% # Request fanout histogram
system.membus.snoop_fanout::overflows               0      0.00%    100.00% # Request fanout histogram
system.membus.snoop_fanout::min_value               0                       # Request fanout histogram
system.membus.snoop_fanout::max_value               0                       # Request fanout histogram
system.membus.snoop_fanout::total             6450759                       # Request fanout histogram
system.membus.power_state.pwrStateResidencyTicks::UNDEFINED 1703801581000                       # Cumulative time (in ticks) in various power states
system.membus.reqLayer2.occupancy         14072815000                       # Layer occupancy (ticks)
system.membus.reqLayer2.utilization               0.8                       # Layer utilization (%)
system.membus.respLayer0.occupancy        34128503500                       # Layer occupancy (ticks)
system.membus.respLayer0.utilization              2.0                       # Layer utilization (%)

---------- End Simulation Statistics   ----------
