Global frequency set at 1000000000000 ticks per second
Redirecting stdout to /data/home/nta52/gem5-adaptive-bypass-cache-project/slurm_evaluation/results/X86/adaptive_eval/hello/2MB/AdaptiveBypassRP/simout
Redirecting stderr to /data/home/nta52/gem5-adaptive-bypass-cache-project/slurm_evaluation/results/X86/adaptive_eval/hello/2MB/AdaptiveBypassRP/simerr
gem5 Simulator System.  http://gem5.org
gem5 is copyrighted software; use the --copyright option for details.

gem5 version 20.1.0.2
gem5 compiled Mar 18 2026 08:16:53
gem5 started Mar 24 2026 04:12:15
gem5 executing on ARCH-750, pid 3142831
command line: /data/home/nta52/gem5-adaptive-bypass-cache-project/build/X86/gem5.opt -re --outdir=/data/home/nta52/gem5-adaptive-bypass-cache-project/slurm_evaluation/results/X86/adaptive_eval/hello/2MB/AdaptiveBypassRP /data/home/nta52/gem5-adaptive-bypass-cache-project/configs/evaluation/run_benchmark.py --l2_size 2MB --l2_rp AdaptiveBypassRP /data/home/nta52/gem5-adaptive-bypass-cache-project/tests/test-progs/hello/bin/x86/linux/hello

info: Standard input is not a terminal, disabling listeners.
Beginning simulation with L2=2MB, RP=AdaptiveBypassRP
Hello world!
Exit @ tick 58125000 because exiting with last active thread context
