
---------- Begin Simulation Statistics ----------
final_tick                                 9155079000                       # Number of ticks from beginning of simulation (restored from checkpoints and never reset)
host_inst_rate                                 463762                       # Simulator instruction rate (inst/s)
host_mem_usage                                 717736                       # Number of bytes of host memory used
host_op_rate                                   817019                       # Simulator op (including micro ops) rate (op/s)
host_seconds                                     5.02                       # Real time elapsed on the host
host_tick_rate                             1824509047                       # Simulator tick rate (ticks/s)
sim_freq                                 1000000000000                       # Frequency of simulated ticks
sim_insts                                     2326963                       # Number of instructions simulated
sim_ops                                       4099626                       # Number of ops (including micro ops) simulated
sim_seconds                                  0.009155                       # Number of seconds simulated
sim_ticks                                  9155079000                       # Number of ticks simulated
system.cpu.Branches                            369070                       # Number of branches fetched
system.cpu.committedInsts                     2326963                       # Number of instructions committed
system.cpu.committedOps                       4099626                       # Number of ops (including micro ops) committed
system.cpu.idle_fraction                     0.000000                       # Percentage of idle cycles
system.cpu.not_idle_fraction                 1.000000                       # Percentage of non-idle cycles
system.cpu.numCycles                          9155079                       # number of cpu cycles simulated
system.cpu.numWorkItemsCompleted                    0                       # number of work items this cpu completed
system.cpu.numWorkItemsStarted                      0                       # number of work items this cpu started
system.cpu.num_busy_cycles               9155078.999000                       # Number of busy cycles
system.cpu.num_cc_register_reads              2309237                       # number of times the CC registers were read
system.cpu.num_cc_register_writes             1840677                       # number of times the CC registers were written
system.cpu.num_conditional_control_insts       322526                       # number of instructions that are conditional controls
system.cpu.num_fp_alu_accesses                  92029                       # Number of float alu accesses
system.cpu.num_fp_insts                         92029                       # number of float instructions
system.cpu.num_fp_register_reads               127654                       # number of times the floating registers were read
system.cpu.num_fp_register_writes               68032                       # number of times the floating registers were written
system.cpu.num_func_calls                       23798                       # number of times a function call or return occured
system.cpu.num_idle_cycles                   0.001000                       # Number of idle cycles
system.cpu.num_int_alu_accesses               4025528                       # Number of integer alu accesses
system.cpu.num_int_insts                      4025528                       # number of integer instructions
system.cpu.num_int_register_reads             8089439                       # number of times the integer registers were read
system.cpu.num_int_register_writes            3517937                       # number of times the integer registers were written
system.cpu.num_load_insts                      529201                       # Number of load instructions
system.cpu.num_mem_refs                        731515                       # number of memory refs
system.cpu.num_store_insts                     202314                       # Number of store instructions
system.cpu.num_vec_alu_accesses                     0                       # Number of vector alu accesses
system.cpu.num_vec_insts                            0                       # number of vector instructions
system.cpu.num_vec_register_reads                   0                       # number of times the vector registers were read
system.cpu.num_vec_register_writes                  0                       # number of times the vector registers were written
system.cpu.op_class::No_OpClass                 27046      0.66%      0.66% # Class of executed instruction
system.cpu.op_class::IntAlu                   3247351     79.20%     79.86% # Class of executed instruction
system.cpu.op_class::IntMult                       48      0.00%     79.87% # Class of executed instruction
system.cpu.op_class::IntDiv                     38408      0.94%     80.80% # Class of executed instruction
system.cpu.op_class::FloatAdd                    5832      0.14%     80.94% # Class of executed instruction
system.cpu.op_class::FloatCmp                       0      0.00%     80.94% # Class of executed instruction
system.cpu.op_class::FloatCvt                    1680      0.04%     80.99% # Class of executed instruction
system.cpu.op_class::FloatMult                      0      0.00%     80.99% # Class of executed instruction
system.cpu.op_class::FloatMultAcc                   0      0.00%     80.99% # Class of executed instruction
system.cpu.op_class::FloatDiv                       0      0.00%     80.99% # Class of executed instruction
system.cpu.op_class::FloatMisc                      0      0.00%     80.99% # Class of executed instruction
system.cpu.op_class::FloatSqrt                      0      0.00%     80.99% # Class of executed instruction
system.cpu.op_class::SimdAdd                     7114      0.17%     81.16% # Class of executed instruction
system.cpu.op_class::SimdAddAcc                     0      0.00%     81.16% # Class of executed instruction
system.cpu.op_class::SimdAlu                    12801      0.31%     81.47% # Class of executed instruction
system.cpu.op_class::SimdCmp                        6      0.00%     81.47% # Class of executed instruction
system.cpu.op_class::SimdCvt                    14642      0.36%     81.83% # Class of executed instruction
system.cpu.op_class::SimdMisc                   12645      0.31%     82.14% # Class of executed instruction
system.cpu.op_class::SimdMult                       0      0.00%     82.14% # Class of executed instruction
system.cpu.op_class::SimdMultAcc                    0      0.00%     82.14% # Class of executed instruction
system.cpu.op_class::SimdShift                    884      0.02%     82.16% # Class of executed instruction
system.cpu.op_class::SimdShiftAcc                   0      0.00%     82.16% # Class of executed instruction
system.cpu.op_class::SimdDiv                        0      0.00%     82.16% # Class of executed instruction
system.cpu.op_class::SimdSqrt                       0      0.00%     82.16% # Class of executed instruction
system.cpu.op_class::SimdFloatAdd                   0      0.00%     82.16% # Class of executed instruction
system.cpu.op_class::SimdFloatAlu                   0      0.00%     82.16% # Class of executed instruction
system.cpu.op_class::SimdFloatCmp                   0      0.00%     82.16% # Class of executed instruction
system.cpu.op_class::SimdFloatCvt                   0      0.00%     82.16% # Class of executed instruction
system.cpu.op_class::SimdFloatDiv                   0      0.00%     82.16% # Class of executed instruction
system.cpu.op_class::SimdFloatMisc                  0      0.00%     82.16% # Class of executed instruction
system.cpu.op_class::SimdFloatMult                  0      0.00%     82.16% # Class of executed instruction
system.cpu.op_class::SimdFloatMultAcc               0      0.00%     82.16% # Class of executed instruction
system.cpu.op_class::SimdFloatSqrt                  0      0.00%     82.16% # Class of executed instruction
system.cpu.op_class::SimdReduceAdd                  0      0.00%     82.16% # Class of executed instruction
system.cpu.op_class::SimdReduceAlu                  0      0.00%     82.16% # Class of executed instruction
system.cpu.op_class::SimdReduceCmp                  0      0.00%     82.16% # Class of executed instruction
system.cpu.op_class::SimdFloatReduceAdd             0      0.00%     82.16% # Class of executed instruction
system.cpu.op_class::SimdFloatReduceCmp             0      0.00%     82.16% # Class of executed instruction
system.cpu.op_class::SimdAes                        0      0.00%     82.16% # Class of executed instruction
system.cpu.op_class::SimdAesMix                     0      0.00%     82.16% # Class of executed instruction
system.cpu.op_class::SimdSha1Hash                   0      0.00%     82.16% # Class of executed instruction
system.cpu.op_class::SimdSha1Hash2                  0      0.00%     82.16% # Class of executed instruction
system.cpu.op_class::SimdSha256Hash                 0      0.00%     82.16% # Class of executed instruction
system.cpu.op_class::SimdSha256Hash2                0      0.00%     82.16% # Class of executed instruction
system.cpu.op_class::SimdShaSigma2                  0      0.00%     82.16% # Class of executed instruction
system.cpu.op_class::SimdShaSigma3                  0      0.00%     82.16% # Class of executed instruction
system.cpu.op_class::SimdPredAlu                    0      0.00%     82.16% # Class of executed instruction
system.cpu.op_class::MemRead                   510362     12.45%     94.61% # Class of executed instruction
system.cpu.op_class::MemWrite                  187529      4.57%     99.18% # Class of executed instruction
system.cpu.op_class::FloatMemRead               18839      0.46%     99.64% # Class of executed instruction
system.cpu.op_class::FloatMemWrite              14785      0.36%    100.00% # Class of executed instruction
system.cpu.op_class::IprAccess                      0      0.00%    100.00% # Class of executed instruction
system.cpu.op_class::InstPrefetch                   0      0.00%    100.00% # Class of executed instruction
system.cpu.op_class::total                    4099972                       # Class of executed instruction
system.cpu.workload.numSyscalls                    93                       # Number of system calls
system.l2bus.snoop_filter.hit_multi_requests            0                       # Number of requests hitting in the snoop filter with multiple (>1) holders of the requested data.
system.l2bus.snoop_filter.hit_multi_snoops            0                       # Number of snoops hitting in the snoop filter with multiple (>1) holders of the requested data.
system.l2bus.snoop_filter.hit_single_requests        16908                       # Number of requests hitting in the snoop filter with a single holder of the requested data.
system.l2bus.snoop_filter.hit_single_snoops            3                       # Number of snoops hitting in the snoop filter with a single holder of the requested data.
system.l2bus.snoop_filter.tot_requests          35096                       # Total number of requests made to the snoop filter.
system.l2bus.snoop_filter.tot_snoops                3                       # Total number of snoops made to the snoop filter.
system.membus.snoop_filter.hit_multi_requests            0                       # Number of requests hitting in the snoop filter with multiple (>1) holders of the requested data.
system.membus.snoop_filter.hit_multi_snoops            0                       # Number of snoops hitting in the snoop filter with multiple (>1) holders of the requested data.
system.membus.snoop_filter.hit_single_requests          109                       # Number of requests hitting in the snoop filter with a single holder of the requested data.
system.membus.snoop_filter.hit_single_snoops            0                       # Number of snoops hitting in the snoop filter with a single holder of the requested data.
system.membus.snoop_filter.tot_requests         11976                       # Total number of requests made to the snoop filter.
system.membus.snoop_filter.tot_snoops               0                       # Total number of snoops made to the snoop filter.
system.clk_domain.clock                          1000                       # Clock period in ticks
system.clk_domain.voltage_domain.voltage            1                       # Voltage in Volts
system.cpu.dcache.demand_hits::.cpu.data       715866                       # number of demand (read+write) hits
system.cpu.dcache.demand_hits::total           715866                       # number of demand (read+write) hits
system.cpu.dcache.overall_hits::.cpu.data       715866                       # number of overall hits
system.cpu.dcache.overall_hits::total          715866                       # number of overall hits
system.cpu.dcache.demand_misses::.cpu.data        15441                       # number of demand (read+write) misses
system.cpu.dcache.demand_misses::total          15441                       # number of demand (read+write) misses
system.cpu.dcache.overall_misses::.cpu.data        15441                       # number of overall misses
system.cpu.dcache.overall_misses::total         15441                       # number of overall misses
system.cpu.dcache.demand_miss_latency::.cpu.data   1218728000                       # number of demand (read+write) miss cycles
system.cpu.dcache.demand_miss_latency::total   1218728000                       # number of demand (read+write) miss cycles
system.cpu.dcache.overall_miss_latency::.cpu.data   1218728000                       # number of overall miss cycles
system.cpu.dcache.overall_miss_latency::total   1218728000                       # number of overall miss cycles
system.cpu.dcache.demand_accesses::.cpu.data       731307                       # number of demand (read+write) accesses
system.cpu.dcache.demand_accesses::total       731307                       # number of demand (read+write) accesses
system.cpu.dcache.overall_accesses::.cpu.data       731307                       # number of overall (read+write) accesses
system.cpu.dcache.overall_accesses::total       731307                       # number of overall (read+write) accesses
system.cpu.dcache.demand_miss_rate::.cpu.data     0.021114                       # miss rate for demand accesses
system.cpu.dcache.demand_miss_rate::total     0.021114                       # miss rate for demand accesses
system.cpu.dcache.overall_miss_rate::.cpu.data     0.021114                       # miss rate for overall accesses
system.cpu.dcache.overall_miss_rate::total     0.021114                       # miss rate for overall accesses
system.cpu.dcache.demand_avg_miss_latency::.cpu.data 78928.048702                       # average overall miss latency
system.cpu.dcache.demand_avg_miss_latency::total 78928.048702                       # average overall miss latency
system.cpu.dcache.overall_avg_miss_latency::.cpu.data 78928.048702                       # average overall miss latency
system.cpu.dcache.overall_avg_miss_latency::total 78928.048702                       # average overall miss latency
system.cpu.dcache.blocked_cycles::no_mshrs            0                       # number of cycles access was blocked
system.cpu.dcache.blocked_cycles::no_targets            0                       # number of cycles access was blocked
system.cpu.dcache.blocked::no_mshrs                 0                       # number of cycles access was blocked
system.cpu.dcache.blocked::no_targets               0                       # number of cycles access was blocked
system.cpu.dcache.avg_blocked_cycles::no_mshrs          nan                       # average number of cycles each access was blocked
system.cpu.dcache.avg_blocked_cycles::no_targets          nan                       # average number of cycles each access was blocked
system.cpu.dcache.writebacks::.writebacks         3112                       # number of writebacks
system.cpu.dcache.writebacks::total              3112                       # number of writebacks
system.cpu.dcache.demand_mshr_misses::.cpu.data        15441                       # number of demand (read+write) MSHR misses
system.cpu.dcache.demand_mshr_misses::total        15441                       # number of demand (read+write) MSHR misses
system.cpu.dcache.overall_mshr_misses::.cpu.data        15441                       # number of overall MSHR misses
system.cpu.dcache.overall_mshr_misses::total        15441                       # number of overall MSHR misses
system.cpu.dcache.demand_mshr_miss_latency::.cpu.data   1187846000                       # number of demand (read+write) MSHR miss cycles
system.cpu.dcache.demand_mshr_miss_latency::total   1187846000                       # number of demand (read+write) MSHR miss cycles
system.cpu.dcache.overall_mshr_miss_latency::.cpu.data   1187846000                       # number of overall MSHR miss cycles
system.cpu.dcache.overall_mshr_miss_latency::total   1187846000                       # number of overall MSHR miss cycles
system.cpu.dcache.demand_mshr_miss_rate::.cpu.data     0.021114                       # mshr miss rate for demand accesses
system.cpu.dcache.demand_mshr_miss_rate::total     0.021114                       # mshr miss rate for demand accesses
system.cpu.dcache.overall_mshr_miss_rate::.cpu.data     0.021114                       # mshr miss rate for overall accesses
system.cpu.dcache.overall_mshr_miss_rate::total     0.021114                       # mshr miss rate for overall accesses
system.cpu.dcache.demand_avg_mshr_miss_latency::.cpu.data 76928.048702                       # average overall mshr miss latency
system.cpu.dcache.demand_avg_mshr_miss_latency::total 76928.048702                       # average overall mshr miss latency
system.cpu.dcache.overall_avg_mshr_miss_latency::.cpu.data 76928.048702                       # average overall mshr miss latency
system.cpu.dcache.overall_avg_mshr_miss_latency::total 76928.048702                       # average overall mshr miss latency
system.cpu.dcache.replacements                  14417                       # number of replacements
system.cpu.dcache.ReadReq_hits::.cpu.data       515938                       # number of ReadReq hits
system.cpu.dcache.ReadReq_hits::total          515938                       # number of ReadReq hits
system.cpu.dcache.ReadReq_misses::.cpu.data        13072                       # number of ReadReq misses
system.cpu.dcache.ReadReq_misses::total         13072                       # number of ReadReq misses
system.cpu.dcache.ReadReq_miss_latency::.cpu.data   1028420000                       # number of ReadReq miss cycles
system.cpu.dcache.ReadReq_miss_latency::total   1028420000                       # number of ReadReq miss cycles
system.cpu.dcache.ReadReq_accesses::.cpu.data       529010                       # number of ReadReq accesses(hits+misses)
system.cpu.dcache.ReadReq_accesses::total       529010                       # number of ReadReq accesses(hits+misses)
system.cpu.dcache.ReadReq_miss_rate::.cpu.data     0.024710                       # miss rate for ReadReq accesses
system.cpu.dcache.ReadReq_miss_rate::total     0.024710                       # miss rate for ReadReq accesses
system.cpu.dcache.ReadReq_avg_miss_latency::.cpu.data 78673.500612                       # average ReadReq miss latency
system.cpu.dcache.ReadReq_avg_miss_latency::total 78673.500612                       # average ReadReq miss latency
system.cpu.dcache.ReadReq_mshr_misses::.cpu.data        13072                       # number of ReadReq MSHR misses
system.cpu.dcache.ReadReq_mshr_misses::total        13072                       # number of ReadReq MSHR misses
system.cpu.dcache.ReadReq_mshr_miss_latency::.cpu.data   1002276000                       # number of ReadReq MSHR miss cycles
system.cpu.dcache.ReadReq_mshr_miss_latency::total   1002276000                       # number of ReadReq MSHR miss cycles
system.cpu.dcache.ReadReq_mshr_miss_rate::.cpu.data     0.024710                       # mshr miss rate for ReadReq accesses
system.cpu.dcache.ReadReq_mshr_miss_rate::total     0.024710                       # mshr miss rate for ReadReq accesses
system.cpu.dcache.ReadReq_avg_mshr_miss_latency::.cpu.data 76673.500612                       # average ReadReq mshr miss latency
system.cpu.dcache.ReadReq_avg_mshr_miss_latency::total 76673.500612                       # average ReadReq mshr miss latency
system.cpu.dcache.WriteReq_hits::.cpu.data       199928                       # number of WriteReq hits
system.cpu.dcache.WriteReq_hits::total         199928                       # number of WriteReq hits
system.cpu.dcache.WriteReq_misses::.cpu.data         2369                       # number of WriteReq misses
system.cpu.dcache.WriteReq_misses::total         2369                       # number of WriteReq misses
system.cpu.dcache.WriteReq_miss_latency::.cpu.data    190308000                       # number of WriteReq miss cycles
system.cpu.dcache.WriteReq_miss_latency::total    190308000                       # number of WriteReq miss cycles
system.cpu.dcache.WriteReq_accesses::.cpu.data       202297                       # number of WriteReq accesses(hits+misses)
system.cpu.dcache.WriteReq_accesses::total       202297                       # number of WriteReq accesses(hits+misses)
system.cpu.dcache.WriteReq_miss_rate::.cpu.data     0.011711                       # miss rate for WriteReq accesses
system.cpu.dcache.WriteReq_miss_rate::total     0.011711                       # miss rate for WriteReq accesses
system.cpu.dcache.WriteReq_avg_miss_latency::.cpu.data 80332.629802                       # average WriteReq miss latency
system.cpu.dcache.WriteReq_avg_miss_latency::total 80332.629802                       # average WriteReq miss latency
system.cpu.dcache.WriteReq_mshr_misses::.cpu.data         2369                       # number of WriteReq MSHR misses
system.cpu.dcache.WriteReq_mshr_misses::total         2369                       # number of WriteReq MSHR misses
system.cpu.dcache.WriteReq_mshr_miss_latency::.cpu.data    185570000                       # number of WriteReq MSHR miss cycles
system.cpu.dcache.WriteReq_mshr_miss_latency::total    185570000                       # number of WriteReq MSHR miss cycles
system.cpu.dcache.WriteReq_mshr_miss_rate::.cpu.data     0.011711                       # mshr miss rate for WriteReq accesses
system.cpu.dcache.WriteReq_mshr_miss_rate::total     0.011711                       # mshr miss rate for WriteReq accesses
system.cpu.dcache.WriteReq_avg_mshr_miss_latency::.cpu.data 78332.629802                       # average WriteReq mshr miss latency
system.cpu.dcache.WriteReq_avg_mshr_miss_latency::total 78332.629802                       # average WriteReq mshr miss latency
system.cpu.dcache.power_state.pwrStateResidencyTicks::UNDEFINED   9155079000                       # Cumulative time (in ticks) in various power states
system.cpu.dcache.tags.tagsinuse           997.184906                       # Cycle average of tags in use
system.cpu.dcache.tags.total_refs              731307                       # Total number of references to valid blocks.
system.cpu.dcache.tags.sampled_refs             15441                       # Sample count of references to valid blocks.
system.cpu.dcache.tags.avg_refs             47.361376                       # Average number of references to valid blocks.
system.cpu.dcache.tags.warmup_cycle            218000                       # Cycle when the warmup percentage was hit.
system.cpu.dcache.tags.occ_blocks::.cpu.data   997.184906                       # Average occupied blocks per requestor
system.cpu.dcache.tags.occ_percent::.cpu.data     0.973813                       # Average percentage of cache occupancy
system.cpu.dcache.tags.occ_percent::total     0.973813                       # Average percentage of cache occupancy
system.cpu.dcache.tags.occ_task_id_blocks::1024         1024                       # Occupied blocks per task id
system.cpu.dcache.tags.age_task_id_blocks_1024::0           30                       # Occupied blocks per task id
system.cpu.dcache.tags.age_task_id_blocks_1024::1          129                       # Occupied blocks per task id
system.cpu.dcache.tags.age_task_id_blocks_1024::2          842                       # Occupied blocks per task id
system.cpu.dcache.tags.age_task_id_blocks_1024::3           23                       # Occupied blocks per task id
system.cpu.dcache.tags.occ_task_id_percent::1024            1                       # Percentage of cache occupancy per task id
system.cpu.dcache.tags.tag_accesses           1478055                       # Number of tag accesses
system.cpu.dcache.tags.data_accesses          1478055                       # Number of data accesses
system.cpu.dcache.tags.power_state.pwrStateResidencyTicks::UNDEFINED   9155079000                       # Cumulative time (in ticks) in various power states
system.cpu.dtb.rdAccesses                      529232                       # TLB accesses on read requests
system.cpu.dtb.wrAccesses                      202328                       # TLB accesses on write requests
system.cpu.dtb.rdMisses                          1501                       # TLB misses on read requests
system.cpu.dtb.wrMisses                           105                       # TLB misses on write requests
system.cpu.dtb.walker.power_state.pwrStateResidencyTicks::UNDEFINED   9155079000                       # Cumulative time (in ticks) in various power states
system.cpu.icache.demand_hits::.cpu.inst      3145637                       # number of demand (read+write) hits
system.cpu.icache.demand_hits::total          3145637                       # number of demand (read+write) hits
system.cpu.icache.overall_hits::.cpu.inst      3145637                       # number of overall hits
system.cpu.icache.overall_hits::total         3145637                       # number of overall hits
system.cpu.icache.demand_misses::.cpu.inst         2747                       # number of demand (read+write) misses
system.cpu.icache.demand_misses::total           2747                       # number of demand (read+write) misses
system.cpu.icache.overall_misses::.cpu.inst         2747                       # number of overall misses
system.cpu.icache.overall_misses::total          2747                       # number of overall misses
system.cpu.icache.demand_miss_latency::.cpu.inst    213405000                       # number of demand (read+write) miss cycles
system.cpu.icache.demand_miss_latency::total    213405000                       # number of demand (read+write) miss cycles
system.cpu.icache.overall_miss_latency::.cpu.inst    213405000                       # number of overall miss cycles
system.cpu.icache.overall_miss_latency::total    213405000                       # number of overall miss cycles
system.cpu.icache.demand_accesses::.cpu.inst      3148384                       # number of demand (read+write) accesses
system.cpu.icache.demand_accesses::total      3148384                       # number of demand (read+write) accesses
system.cpu.icache.overall_accesses::.cpu.inst      3148384                       # number of overall (read+write) accesses
system.cpu.icache.overall_accesses::total      3148384                       # number of overall (read+write) accesses
system.cpu.icache.demand_miss_rate::.cpu.inst     0.000873                       # miss rate for demand accesses
system.cpu.icache.demand_miss_rate::total     0.000873                       # miss rate for demand accesses
system.cpu.icache.overall_miss_rate::.cpu.inst     0.000873                       # miss rate for overall accesses
system.cpu.icache.overall_miss_rate::total     0.000873                       # miss rate for overall accesses
system.cpu.icache.demand_avg_miss_latency::.cpu.inst 77686.567164                       # average overall miss latency
system.cpu.icache.demand_avg_miss_latency::total 77686.567164                       # average overall miss latency
system.cpu.icache.overall_avg_miss_latency::.cpu.inst 77686.567164                       # average overall miss latency
system.cpu.icache.overall_avg_miss_latency::total 77686.567164                       # average overall miss latency
system.cpu.icache.blocked_cycles::no_mshrs            0                       # number of cycles access was blocked
system.cpu.icache.blocked_cycles::no_targets            0                       # number of cycles access was blocked
system.cpu.icache.blocked::no_mshrs                 0                       # number of cycles access was blocked
system.cpu.icache.blocked::no_targets               0                       # number of cycles access was blocked
system.cpu.icache.avg_blocked_cycles::no_mshrs          nan                       # average number of cycles each access was blocked
system.cpu.icache.avg_blocked_cycles::no_targets          nan                       # average number of cycles each access was blocked
system.cpu.icache.demand_mshr_misses::.cpu.inst         2747                       # number of demand (read+write) MSHR misses
system.cpu.icache.demand_mshr_misses::total         2747                       # number of demand (read+write) MSHR misses
system.cpu.icache.overall_mshr_misses::.cpu.inst         2747                       # number of overall MSHR misses
system.cpu.icache.overall_mshr_misses::total         2747                       # number of overall MSHR misses
system.cpu.icache.demand_mshr_miss_latency::.cpu.inst    207911000                       # number of demand (read+write) MSHR miss cycles
system.cpu.icache.demand_mshr_miss_latency::total    207911000                       # number of demand (read+write) MSHR miss cycles
system.cpu.icache.overall_mshr_miss_latency::.cpu.inst    207911000                       # number of overall MSHR miss cycles
system.cpu.icache.overall_mshr_miss_latency::total    207911000                       # number of overall MSHR miss cycles
system.cpu.icache.demand_mshr_miss_rate::.cpu.inst     0.000873                       # mshr miss rate for demand accesses
system.cpu.icache.demand_mshr_miss_rate::total     0.000873                       # mshr miss rate for demand accesses
system.cpu.icache.overall_mshr_miss_rate::.cpu.inst     0.000873                       # mshr miss rate for overall accesses
system.cpu.icache.overall_mshr_miss_rate::total     0.000873                       # mshr miss rate for overall accesses
system.cpu.icache.demand_avg_mshr_miss_latency::.cpu.inst 75686.567164                       # average overall mshr miss latency
system.cpu.icache.demand_avg_mshr_miss_latency::total 75686.567164                       # average overall mshr miss latency
system.cpu.icache.overall_avg_mshr_miss_latency::.cpu.inst 75686.567164                       # average overall mshr miss latency
system.cpu.icache.overall_avg_mshr_miss_latency::total 75686.567164                       # average overall mshr miss latency
system.cpu.icache.replacements                   2491                       # number of replacements
system.cpu.icache.ReadReq_hits::.cpu.inst      3145637                       # number of ReadReq hits
system.cpu.icache.ReadReq_hits::total         3145637                       # number of ReadReq hits
system.cpu.icache.ReadReq_misses::.cpu.inst         2747                       # number of ReadReq misses
system.cpu.icache.ReadReq_misses::total          2747                       # number of ReadReq misses
system.cpu.icache.ReadReq_miss_latency::.cpu.inst    213405000                       # number of ReadReq miss cycles
system.cpu.icache.ReadReq_miss_latency::total    213405000                       # number of ReadReq miss cycles
system.cpu.icache.ReadReq_accesses::.cpu.inst      3148384                       # number of ReadReq accesses(hits+misses)
system.cpu.icache.ReadReq_accesses::total      3148384                       # number of ReadReq accesses(hits+misses)
system.cpu.icache.ReadReq_miss_rate::.cpu.inst     0.000873                       # miss rate for ReadReq accesses
system.cpu.icache.ReadReq_miss_rate::total     0.000873                       # miss rate for ReadReq accesses
system.cpu.icache.ReadReq_avg_miss_latency::.cpu.inst 77686.567164                       # average ReadReq miss latency
system.cpu.icache.ReadReq_avg_miss_latency::total 77686.567164                       # average ReadReq miss latency
system.cpu.icache.ReadReq_mshr_misses::.cpu.inst         2747                       # number of ReadReq MSHR misses
system.cpu.icache.ReadReq_mshr_misses::total         2747                       # number of ReadReq MSHR misses
system.cpu.icache.ReadReq_mshr_miss_latency::.cpu.inst    207911000                       # number of ReadReq MSHR miss cycles
system.cpu.icache.ReadReq_mshr_miss_latency::total    207911000                       # number of ReadReq MSHR miss cycles
system.cpu.icache.ReadReq_mshr_miss_rate::.cpu.inst     0.000873                       # mshr miss rate for ReadReq accesses
system.cpu.icache.ReadReq_mshr_miss_rate::total     0.000873                       # mshr miss rate for ReadReq accesses
system.cpu.icache.ReadReq_avg_mshr_miss_latency::.cpu.inst 75686.567164                       # average ReadReq mshr miss latency
system.cpu.icache.ReadReq_avg_mshr_miss_latency::total 75686.567164                       # average ReadReq mshr miss latency
system.cpu.icache.power_state.pwrStateResidencyTicks::UNDEFINED   9155079000                       # Cumulative time (in ticks) in various power states
system.cpu.icache.tags.tagsinuse           252.729054                       # Cycle average of tags in use
system.cpu.icache.tags.total_refs             3148384                       # Total number of references to valid blocks.
system.cpu.icache.tags.sampled_refs              2747                       # Sample count of references to valid blocks.
system.cpu.icache.tags.avg_refs           1146.117219                       # Average number of references to valid blocks.
system.cpu.icache.tags.warmup_cycle            107000                       # Cycle when the warmup percentage was hit.
system.cpu.icache.tags.occ_blocks::.cpu.inst   252.729054                       # Average occupied blocks per requestor
system.cpu.icache.tags.occ_percent::.cpu.inst     0.987223                       # Average percentage of cache occupancy
system.cpu.icache.tags.occ_percent::total     0.987223                       # Average percentage of cache occupancy
system.cpu.icache.tags.occ_task_id_blocks::1024          256                       # Occupied blocks per task id
system.cpu.icache.tags.age_task_id_blocks_1024::0           51                       # Occupied blocks per task id
system.cpu.icache.tags.age_task_id_blocks_1024::1          111                       # Occupied blocks per task id
system.cpu.icache.tags.age_task_id_blocks_1024::2           87                       # Occupied blocks per task id
system.cpu.icache.tags.age_task_id_blocks_1024::3            7                       # Occupied blocks per task id
system.cpu.icache.tags.occ_task_id_percent::1024            1                       # Percentage of cache occupancy per task id
system.cpu.icache.tags.tag_accesses           6299515                       # Number of tag accesses
system.cpu.icache.tags.data_accesses          6299515                       # Number of data accesses
system.cpu.icache.tags.power_state.pwrStateResidencyTicks::UNDEFINED   9155079000                       # Cumulative time (in ticks) in various power states
system.cpu.interrupts.clk_domain.clock          16000                       # Clock period in ticks
system.cpu.itb.rdAccesses                           0                       # TLB accesses on read requests
system.cpu.itb.wrAccesses                     3148514                       # TLB accesses on write requests
system.cpu.itb.rdMisses                             0                       # TLB misses on read requests
system.cpu.itb.wrMisses                           466                       # TLB misses on write requests
system.cpu.itb.walker.power_state.pwrStateResidencyTicks::UNDEFINED   9155079000                       # Cumulative time (in ticks) in various power states
system.cpu.power_state.pwrStateResidencyTicks::ON   9155079000                       # Cumulative time (in ticks) in various power states
system.cpu.thread_0.numInsts                        0                       # Number of Instructions committed
system.cpu.thread_0.numOps                          0                       # Number of Ops committed
system.cpu.thread_0.numMemRefs                      0                       # Number of Memory References
system.l2bus.trans_dist::ReadResp               15819                       # Transaction distribution
system.l2bus.trans_dist::WritebackDirty          3131                       # Transaction distribution
system.l2bus.trans_dist::CleanEvict             13887                       # Transaction distribution
system.l2bus.trans_dist::ReadExReq               2369                       # Transaction distribution
system.l2bus.trans_dist::ReadExResp              2369                       # Transaction distribution
system.l2bus.trans_dist::ReadSharedReq          15819                       # Transaction distribution
system.l2bus.pkt_count_system.cpu.icache.mem_side_port::system.l2cache.cpu_side_port         7985                       # Packet count per connected requestor and responder (bytes)
system.l2bus.pkt_count_system.cpu.dcache.mem_side_port::system.l2cache.cpu_side_port        45299                       # Packet count per connected requestor and responder (bytes)
system.l2bus.pkt_count::total                   53284                       # Packet count per connected requestor and responder (bytes)
system.l2bus.pkt_size_system.cpu.icache.mem_side_port::system.l2cache.cpu_side_port       175808                       # Cumulative packet size per connected requestor and responder (bytes)
system.l2bus.pkt_size_system.cpu.dcache.mem_side_port::system.l2cache.cpu_side_port      1187392                       # Cumulative packet size per connected requestor and responder (bytes)
system.l2bus.pkt_size::total                  1363200                       # Cumulative packet size per connected requestor and responder (bytes)
system.l2bus.snoops                               110                       # Total snoops (count)
system.l2bus.snoopTraffic                        1216                       # Total snoop traffic (bytes)
system.l2bus.snoop_fanout::samples              18298                       # Request fanout histogram
system.l2bus.snoop_fanout::mean              0.000164                       # Request fanout histogram
system.l2bus.snoop_fanout::stdev             0.012804                       # Request fanout histogram
system.l2bus.snoop_fanout::underflows               0      0.00%      0.00% # Request fanout histogram
system.l2bus.snoop_fanout::0                    18295     99.98%     99.98% # Request fanout histogram
system.l2bus.snoop_fanout::1                        3      0.02%    100.00% # Request fanout histogram
system.l2bus.snoop_fanout::2                        0      0.00%    100.00% # Request fanout histogram
system.l2bus.snoop_fanout::overflows                0      0.00%    100.00% # Request fanout histogram
system.l2bus.snoop_fanout::min_value                0                       # Request fanout histogram
system.l2bus.snoop_fanout::max_value                1                       # Request fanout histogram
system.l2bus.snoop_fanout::total                18298                       # Request fanout histogram
system.l2bus.power_state.pwrStateResidencyTicks::UNDEFINED   9155079000                       # Cumulative time (in ticks) in various power states
system.l2bus.reqLayer0.occupancy             41320000                       # Layer occupancy (ticks)
system.l2bus.reqLayer0.utilization                0.5                       # Layer utilization (%)
system.l2bus.respLayer0.occupancy             8241000                       # Layer occupancy (ticks)
system.l2bus.respLayer0.utilization               0.1                       # Layer utilization (%)
system.l2bus.respLayer1.occupancy            46323000                       # Layer occupancy (ticks)
system.l2bus.respLayer1.utilization               0.5                       # Layer utilization (%)
system.l2cache.demand_hits::.cpu.inst             920                       # number of demand (read+write) hits
system.l2cache.demand_hits::.cpu.data            5401                       # number of demand (read+write) hits
system.l2cache.demand_hits::total                6321                       # number of demand (read+write) hits
system.l2cache.overall_hits::.cpu.inst            920                       # number of overall hits
system.l2cache.overall_hits::.cpu.data           5401                       # number of overall hits
system.l2cache.overall_hits::total               6321                       # number of overall hits
system.l2cache.demand_misses::.cpu.inst          1827                       # number of demand (read+write) misses
system.l2cache.demand_misses::.cpu.data         10040                       # number of demand (read+write) misses
system.l2cache.demand_misses::total             11867                       # number of demand (read+write) misses
system.l2cache.overall_misses::.cpu.inst         1827                       # number of overall misses
system.l2cache.overall_misses::.cpu.data        10040                       # number of overall misses
system.l2cache.overall_misses::total            11867                       # number of overall misses
system.l2cache.demand_miss_latency::.cpu.inst    180325000                       # number of demand (read+write) miss cycles
system.l2cache.demand_miss_latency::.cpu.data   1028101000                       # number of demand (read+write) miss cycles
system.l2cache.demand_miss_latency::total   1208426000                       # number of demand (read+write) miss cycles
system.l2cache.overall_miss_latency::.cpu.inst    180325000                       # number of overall miss cycles
system.l2cache.overall_miss_latency::.cpu.data   1028101000                       # number of overall miss cycles
system.l2cache.overall_miss_latency::total   1208426000                       # number of overall miss cycles
system.l2cache.demand_accesses::.cpu.inst         2747                       # number of demand (read+write) accesses
system.l2cache.demand_accesses::.cpu.data        15441                       # number of demand (read+write) accesses
system.l2cache.demand_accesses::total           18188                       # number of demand (read+write) accesses
system.l2cache.overall_accesses::.cpu.inst         2747                       # number of overall (read+write) accesses
system.l2cache.overall_accesses::.cpu.data        15441                       # number of overall (read+write) accesses
system.l2cache.overall_accesses::total          18188                       # number of overall (read+write) accesses
system.l2cache.demand_miss_rate::.cpu.inst     0.665089                       # miss rate for demand accesses
system.l2cache.demand_miss_rate::.cpu.data     0.650217                       # miss rate for demand accesses
system.l2cache.demand_miss_rate::total       0.652463                       # miss rate for demand accesses
system.l2cache.overall_miss_rate::.cpu.inst     0.665089                       # miss rate for overall accesses
system.l2cache.overall_miss_rate::.cpu.data     0.650217                       # miss rate for overall accesses
system.l2cache.overall_miss_rate::total      0.652463                       # miss rate for overall accesses
system.l2cache.demand_avg_miss_latency::.cpu.inst 98700.054735                       # average overall miss latency
system.l2cache.demand_avg_miss_latency::.cpu.data 102400.498008                       # average overall miss latency
system.l2cache.demand_avg_miss_latency::total 101830.791270                       # average overall miss latency
system.l2cache.overall_avg_miss_latency::.cpu.inst 98700.054735                       # average overall miss latency
system.l2cache.overall_avg_miss_latency::.cpu.data 102400.498008                       # average overall miss latency
system.l2cache.overall_avg_miss_latency::total 101830.791270                       # average overall miss latency
system.l2cache.blocked_cycles::no_mshrs             0                       # number of cycles access was blocked
system.l2cache.blocked_cycles::no_targets            0                       # number of cycles access was blocked
system.l2cache.blocked::no_mshrs                    0                       # number of cycles access was blocked
system.l2cache.blocked::no_targets                  0                       # number of cycles access was blocked
system.l2cache.avg_blocked_cycles::no_mshrs          nan                       # average number of cycles each access was blocked
system.l2cache.avg_blocked_cycles::no_targets          nan                       # average number of cycles each access was blocked
system.l2cache.writebacks::.writebacks             19                       # number of writebacks
system.l2cache.writebacks::total                   19                       # number of writebacks
system.l2cache.demand_mshr_misses::.cpu.inst         1827                       # number of demand (read+write) MSHR misses
system.l2cache.demand_mshr_misses::.cpu.data        10040                       # number of demand (read+write) MSHR misses
system.l2cache.demand_mshr_misses::total        11867                       # number of demand (read+write) MSHR misses
system.l2cache.overall_mshr_misses::.cpu.inst         1827                       # number of overall MSHR misses
system.l2cache.overall_mshr_misses::.cpu.data        10040                       # number of overall MSHR misses
system.l2cache.overall_mshr_misses::total        11867                       # number of overall MSHR misses
system.l2cache.demand_mshr_miss_latency::.cpu.inst    143785000                       # number of demand (read+write) MSHR miss cycles
system.l2cache.demand_mshr_miss_latency::.cpu.data    827301000                       # number of demand (read+write) MSHR miss cycles
system.l2cache.demand_mshr_miss_latency::total    971086000                       # number of demand (read+write) MSHR miss cycles
system.l2cache.overall_mshr_miss_latency::.cpu.inst    143785000                       # number of overall MSHR miss cycles
system.l2cache.overall_mshr_miss_latency::.cpu.data    827301000                       # number of overall MSHR miss cycles
system.l2cache.overall_mshr_miss_latency::total    971086000                       # number of overall MSHR miss cycles
system.l2cache.demand_mshr_miss_rate::.cpu.inst     0.665089                       # mshr miss rate for demand accesses
system.l2cache.demand_mshr_miss_rate::.cpu.data     0.650217                       # mshr miss rate for demand accesses
system.l2cache.demand_mshr_miss_rate::total     0.652463                       # mshr miss rate for demand accesses
system.l2cache.overall_mshr_miss_rate::.cpu.inst     0.665089                       # mshr miss rate for overall accesses
system.l2cache.overall_mshr_miss_rate::.cpu.data     0.650217                       # mshr miss rate for overall accesses
system.l2cache.overall_mshr_miss_rate::total     0.652463                       # mshr miss rate for overall accesses
system.l2cache.demand_avg_mshr_miss_latency::.cpu.inst 78700.054735                       # average overall mshr miss latency
system.l2cache.demand_avg_mshr_miss_latency::.cpu.data 82400.498008                       # average overall mshr miss latency
system.l2cache.demand_avg_mshr_miss_latency::total 81830.791270                       # average overall mshr miss latency
system.l2cache.overall_avg_mshr_miss_latency::.cpu.inst 78700.054735                       # average overall mshr miss latency
system.l2cache.overall_avg_mshr_miss_latency::.cpu.data 82400.498008                       # average overall mshr miss latency
system.l2cache.overall_avg_mshr_miss_latency::total 81830.791270                       # average overall mshr miss latency
system.l2cache.replacements                       110                       # number of replacements
system.l2cache.WritebackDirty_hits::.writebacks         3112                       # number of WritebackDirty hits
system.l2cache.WritebackDirty_hits::total         3112                       # number of WritebackDirty hits
system.l2cache.WritebackDirty_accesses::.writebacks         3112                       # number of WritebackDirty accesses(hits+misses)
system.l2cache.WritebackDirty_accesses::total         3112                       # number of WritebackDirty accesses(hits+misses)
system.l2cache.CleanEvict_mshr_misses::.writebacks            2                       # number of CleanEvict MSHR misses
system.l2cache.CleanEvict_mshr_misses::total            2                       # number of CleanEvict MSHR misses
system.l2cache.CleanEvict_mshr_miss_rate::.writebacks          inf                       # mshr miss rate for CleanEvict accesses
system.l2cache.CleanEvict_mshr_miss_rate::total          inf                       # mshr miss rate for CleanEvict accesses
system.l2cache.ReadExReq_hits::.cpu.data          704                       # number of ReadExReq hits
system.l2cache.ReadExReq_hits::total              704                       # number of ReadExReq hits
system.l2cache.ReadExReq_misses::.cpu.data         1665                       # number of ReadExReq misses
system.l2cache.ReadExReq_misses::total           1665                       # number of ReadExReq misses
system.l2cache.ReadExReq_miss_latency::.cpu.data    163678000                       # number of ReadExReq miss cycles
system.l2cache.ReadExReq_miss_latency::total    163678000                       # number of ReadExReq miss cycles
system.l2cache.ReadExReq_accesses::.cpu.data         2369                       # number of ReadExReq accesses(hits+misses)
system.l2cache.ReadExReq_accesses::total         2369                       # number of ReadExReq accesses(hits+misses)
system.l2cache.ReadExReq_miss_rate::.cpu.data     0.702828                       # miss rate for ReadExReq accesses
system.l2cache.ReadExReq_miss_rate::total     0.702828                       # miss rate for ReadExReq accesses
system.l2cache.ReadExReq_avg_miss_latency::.cpu.data 98305.105105                       # average ReadExReq miss latency
system.l2cache.ReadExReq_avg_miss_latency::total 98305.105105                       # average ReadExReq miss latency
system.l2cache.ReadExReq_mshr_misses::.cpu.data         1665                       # number of ReadExReq MSHR misses
system.l2cache.ReadExReq_mshr_misses::total         1665                       # number of ReadExReq MSHR misses
system.l2cache.ReadExReq_mshr_miss_latency::.cpu.data    130378000                       # number of ReadExReq MSHR miss cycles
system.l2cache.ReadExReq_mshr_miss_latency::total    130378000                       # number of ReadExReq MSHR miss cycles
system.l2cache.ReadExReq_mshr_miss_rate::.cpu.data     0.702828                       # mshr miss rate for ReadExReq accesses
system.l2cache.ReadExReq_mshr_miss_rate::total     0.702828                       # mshr miss rate for ReadExReq accesses
system.l2cache.ReadExReq_avg_mshr_miss_latency::.cpu.data 78305.105105                       # average ReadExReq mshr miss latency
system.l2cache.ReadExReq_avg_mshr_miss_latency::total 78305.105105                       # average ReadExReq mshr miss latency
system.l2cache.ReadSharedReq_hits::.cpu.inst          920                       # number of ReadSharedReq hits
system.l2cache.ReadSharedReq_hits::.cpu.data         4697                       # number of ReadSharedReq hits
system.l2cache.ReadSharedReq_hits::total         5617                       # number of ReadSharedReq hits
system.l2cache.ReadSharedReq_misses::.cpu.inst         1827                       # number of ReadSharedReq misses
system.l2cache.ReadSharedReq_misses::.cpu.data         8375                       # number of ReadSharedReq misses
system.l2cache.ReadSharedReq_misses::total        10202                       # number of ReadSharedReq misses
system.l2cache.ReadSharedReq_miss_latency::.cpu.inst    180325000                       # number of ReadSharedReq miss cycles
system.l2cache.ReadSharedReq_miss_latency::.cpu.data    864423000                       # number of ReadSharedReq miss cycles
system.l2cache.ReadSharedReq_miss_latency::total   1044748000                       # number of ReadSharedReq miss cycles
system.l2cache.ReadSharedReq_accesses::.cpu.inst         2747                       # number of ReadSharedReq accesses(hits+misses)
system.l2cache.ReadSharedReq_accesses::.cpu.data        13072                       # number of ReadSharedReq accesses(hits+misses)
system.l2cache.ReadSharedReq_accesses::total        15819                       # number of ReadSharedReq accesses(hits+misses)
system.l2cache.ReadSharedReq_miss_rate::.cpu.inst     0.665089                       # miss rate for ReadSharedReq accesses
system.l2cache.ReadSharedReq_miss_rate::.cpu.data     0.640682                       # miss rate for ReadSharedReq accesses
system.l2cache.ReadSharedReq_miss_rate::total     0.644921                       # miss rate for ReadSharedReq accesses
system.l2cache.ReadSharedReq_avg_miss_latency::.cpu.inst 98700.054735                       # average ReadSharedReq miss latency
system.l2cache.ReadSharedReq_avg_miss_latency::.cpu.data 103214.686567                       # average ReadSharedReq miss latency
system.l2cache.ReadSharedReq_avg_miss_latency::total 102406.194864                       # average ReadSharedReq miss latency
system.l2cache.ReadSharedReq_mshr_misses::.cpu.inst         1827                       # number of ReadSharedReq MSHR misses
system.l2cache.ReadSharedReq_mshr_misses::.cpu.data         8375                       # number of ReadSharedReq MSHR misses
system.l2cache.ReadSharedReq_mshr_misses::total        10202                       # number of ReadSharedReq MSHR misses
system.l2cache.ReadSharedReq_mshr_miss_latency::.cpu.inst    143785000                       # number of ReadSharedReq MSHR miss cycles
system.l2cache.ReadSharedReq_mshr_miss_latency::.cpu.data    696923000                       # number of ReadSharedReq MSHR miss cycles
system.l2cache.ReadSharedReq_mshr_miss_latency::total    840708000                       # number of ReadSharedReq MSHR miss cycles
system.l2cache.ReadSharedReq_mshr_miss_rate::.cpu.inst     0.665089                       # mshr miss rate for ReadSharedReq accesses
system.l2cache.ReadSharedReq_mshr_miss_rate::.cpu.data     0.640682                       # mshr miss rate for ReadSharedReq accesses
system.l2cache.ReadSharedReq_mshr_miss_rate::total     0.644921                       # mshr miss rate for ReadSharedReq accesses
system.l2cache.ReadSharedReq_avg_mshr_miss_latency::.cpu.inst 78700.054735                       # average ReadSharedReq mshr miss latency
system.l2cache.ReadSharedReq_avg_mshr_miss_latency::.cpu.data 83214.686567                       # average ReadSharedReq mshr miss latency
system.l2cache.ReadSharedReq_avg_mshr_miss_latency::total 82406.194864                       # average ReadSharedReq mshr miss latency
system.l2cache.power_state.pwrStateResidencyTicks::UNDEFINED   9155079000                       # Cumulative time (in ticks) in various power states
system.l2cache.tags.tagsinuse             6632.487739                       # Cycle average of tags in use
system.l2cache.tags.total_refs                  35094                       # Total number of references to valid blocks.
system.l2cache.tags.sampled_refs                11867                       # Sample count of references to valid blocks.
system.l2cache.tags.avg_refs                 2.957276                       # Average number of references to valid blocks.
system.l2cache.tags.warmup_cycle                86000                       # Cycle when the warmup percentage was hit.
system.l2cache.tags.occ_blocks::.cpu.inst   762.048074                       # Average occupied blocks per requestor
system.l2cache.tags.occ_blocks::.cpu.data  5870.439665                       # Average occupied blocks per requestor
system.l2cache.tags.occ_percent::.cpu.inst     0.046512                       # Average percentage of cache occupancy
system.l2cache.tags.occ_percent::.cpu.data     0.358303                       # Average percentage of cache occupancy
system.l2cache.tags.occ_percent::total       0.404815                       # Average percentage of cache occupancy
system.l2cache.tags.occ_task_id_blocks::1024        11757                       # Occupied blocks per task id
system.l2cache.tags.age_task_id_blocks_1024::0           52                       # Occupied blocks per task id
system.l2cache.tags.age_task_id_blocks_1024::1          126                       # Occupied blocks per task id
system.l2cache.tags.age_task_id_blocks_1024::2         1985                       # Occupied blocks per task id
system.l2cache.tags.age_task_id_blocks_1024::3         9594                       # Occupied blocks per task id
system.l2cache.tags.occ_task_id_percent::1024     0.717590                       # Percentage of cache occupancy per task id
system.l2cache.tags.tag_accesses               292635                       # Number of tag accesses
system.l2cache.tags.data_accesses              292635                       # Number of data accesses
system.l2cache.tags.power_state.pwrStateResidencyTicks::UNDEFINED   9155079000                       # Cumulative time (in ticks) in various power states
system.mem_ctrl.avgPriority_.writebacks::samples        19.00                       # Average QoS priority value for accepted requests
system.mem_ctrl.avgPriority_.cpu.inst::samples      1827.00                       # Average QoS priority value for accepted requests
system.mem_ctrl.avgPriority_.cpu.data::samples     10039.00                       # Average QoS priority value for accepted requests
system.mem_ctrl.priorityMinLatency       0.000000018750                       # per QoS priority minimum request to response latency (s)
system.mem_ctrl.priorityMaxLatency       0.000000579000                       # per QoS priority maximum request to response latency (s)
system.mem_ctrl.numReadWriteTurnArounds             0                       # Number of turnarounds from READ to WRITE
system.mem_ctrl.numWriteReadTurnArounds             0                       # Number of turnarounds from WRITE to READ
system.mem_ctrl.numStayReadState                26101                       # Number of times bus staying in READ state
system.mem_ctrl.numStayWriteState                   0                       # Number of times bus staying in WRITE state
system.mem_ctrl.readReqs                        11867                       # Number of read requests accepted
system.mem_ctrl.writeReqs                          19                       # Number of write requests accepted
system.mem_ctrl.readBursts                      11867                       # Number of controller read bursts, including those serviced by the write queue
system.mem_ctrl.writeBursts                        19                       # Number of controller write bursts, including those merged in the write queue
system.mem_ctrl.servicedByWrQ                       1                       # Number of controller read bursts serviced by the write queue
system.mem_ctrl.mergedWrBursts                      0                       # Number of controller write bursts merged with an existing one
system.mem_ctrl.neitherReadNorWriteReqs             0                       # Number of requests that are neither read nor write
system.mem_ctrl.avgRdQLen                        1.00                       # Average read queue length when enqueuing
system.mem_ctrl.avgWrQLen                        0.60                       # Average write queue length when enqueuing
system.mem_ctrl.numRdRetry                          0                       # Number of times read queue was full causing retry
system.mem_ctrl.numWrRetry                          0                       # Number of times write queue was full causing retry
system.mem_ctrl.readPktSize::0                      0                       # Read request sizes (log2)
system.mem_ctrl.readPktSize::1                      0                       # Read request sizes (log2)
system.mem_ctrl.readPktSize::2                      0                       # Read request sizes (log2)
system.mem_ctrl.readPktSize::3                      0                       # Read request sizes (log2)
system.mem_ctrl.readPktSize::4                      0                       # Read request sizes (log2)
system.mem_ctrl.readPktSize::5                      0                       # Read request sizes (log2)
system.mem_ctrl.readPktSize::6                  11867                       # Read request sizes (log2)
system.mem_ctrl.writePktSize::0                     0                       # Write request sizes (log2)
system.mem_ctrl.writePktSize::1                     0                       # Write request sizes (log2)
system.mem_ctrl.writePktSize::2                     0                       # Write request sizes (log2)
system.mem_ctrl.writePktSize::3                     0                       # Write request sizes (log2)
system.mem_ctrl.writePktSize::4                     0                       # Write request sizes (log2)
system.mem_ctrl.writePktSize::5                     0                       # Write request sizes (log2)
system.mem_ctrl.writePktSize::6                    19                       # Write request sizes (log2)
system.mem_ctrl.rdQLenPdf::0                    11866                       # What read queue length does an incoming req see
system.mem_ctrl.rdQLenPdf::1                        0                       # What read queue length does an incoming req see
system.mem_ctrl.rdQLenPdf::2                        0                       # What read queue length does an incoming req see
system.mem_ctrl.rdQLenPdf::3                        0                       # What read queue length does an incoming req see
system.mem_ctrl.rdQLenPdf::4                        0                       # What read queue length does an incoming req see
system.mem_ctrl.rdQLenPdf::5                        0                       # What read queue length does an incoming req see
system.mem_ctrl.rdQLenPdf::6                        0                       # What read queue length does an incoming req see
system.mem_ctrl.rdQLenPdf::7                        0                       # What read queue length does an incoming req see
system.mem_ctrl.rdQLenPdf::8                        0                       # What read queue length does an incoming req see
system.mem_ctrl.rdQLenPdf::9                        0                       # What read queue length does an incoming req see
system.mem_ctrl.rdQLenPdf::10                       0                       # What read queue length does an incoming req see
system.mem_ctrl.rdQLenPdf::11                       0                       # What read queue length does an incoming req see
system.mem_ctrl.rdQLenPdf::12                       0                       # What read queue length does an incoming req see
system.mem_ctrl.rdQLenPdf::13                       0                       # What read queue length does an incoming req see
system.mem_ctrl.rdQLenPdf::14                       0                       # What read queue length does an incoming req see
system.mem_ctrl.rdQLenPdf::15                       0                       # What read queue length does an incoming req see
system.mem_ctrl.rdQLenPdf::16                       0                       # What read queue length does an incoming req see
system.mem_ctrl.rdQLenPdf::17                       0                       # What read queue length does an incoming req see
system.mem_ctrl.rdQLenPdf::18                       0                       # What read queue length does an incoming req see
system.mem_ctrl.rdQLenPdf::19                       0                       # What read queue length does an incoming req see
system.mem_ctrl.rdQLenPdf::20                       0                       # What read queue length does an incoming req see
system.mem_ctrl.rdQLenPdf::21                       0                       # What read queue length does an incoming req see
system.mem_ctrl.rdQLenPdf::22                       0                       # What read queue length does an incoming req see
system.mem_ctrl.rdQLenPdf::23                       0                       # What read queue length does an incoming req see
system.mem_ctrl.rdQLenPdf::24                       0                       # What read queue length does an incoming req see
system.mem_ctrl.rdQLenPdf::25                       0                       # What read queue length does an incoming req see
system.mem_ctrl.rdQLenPdf::26                       0                       # What read queue length does an incoming req see
system.mem_ctrl.rdQLenPdf::27                       0                       # What read queue length does an incoming req see
system.mem_ctrl.rdQLenPdf::28                       0                       # What read queue length does an incoming req see
system.mem_ctrl.rdQLenPdf::29                       0                       # What read queue length does an incoming req see
system.mem_ctrl.rdQLenPdf::30                       0                       # What read queue length does an incoming req see
system.mem_ctrl.rdQLenPdf::31                       0                       # What read queue length does an incoming req see
system.mem_ctrl.wrQLenPdf::0                        1                       # What write queue length does an incoming req see
system.mem_ctrl.wrQLenPdf::1                        1                       # What write queue length does an incoming req see
system.mem_ctrl.wrQLenPdf::2                        1                       # What write queue length does an incoming req see
system.mem_ctrl.wrQLenPdf::3                        1                       # What write queue length does an incoming req see
system.mem_ctrl.wrQLenPdf::4                        1                       # What write queue length does an incoming req see
system.mem_ctrl.wrQLenPdf::5                        1                       # What write queue length does an incoming req see
system.mem_ctrl.wrQLenPdf::6                        1                       # What write queue length does an incoming req see
system.mem_ctrl.wrQLenPdf::7                        1                       # What write queue length does an incoming req see
system.mem_ctrl.wrQLenPdf::8                        1                       # What write queue length does an incoming req see
system.mem_ctrl.wrQLenPdf::9                        1                       # What write queue length does an incoming req see
system.mem_ctrl.wrQLenPdf::10                       1                       # What write queue length does an incoming req see
system.mem_ctrl.wrQLenPdf::11                       1                       # What write queue length does an incoming req see
system.mem_ctrl.wrQLenPdf::12                       1                       # What write queue length does an incoming req see
system.mem_ctrl.wrQLenPdf::13                       1                       # What write queue length does an incoming req see
system.mem_ctrl.wrQLenPdf::14                       1                       # What write queue length does an incoming req see
system.mem_ctrl.wrQLenPdf::15                       1                       # What write queue length does an incoming req see
system.mem_ctrl.wrQLenPdf::16                       1                       # What write queue length does an incoming req see
system.mem_ctrl.wrQLenPdf::17                       1                       # What write queue length does an incoming req see
system.mem_ctrl.wrQLenPdf::18                       1                       # What write queue length does an incoming req see
system.mem_ctrl.wrQLenPdf::19                       0                       # What write queue length does an incoming req see
system.mem_ctrl.wrQLenPdf::20                       0                       # What write queue length does an incoming req see
system.mem_ctrl.wrQLenPdf::21                       0                       # What write queue length does an incoming req see
system.mem_ctrl.wrQLenPdf::22                       0                       # What write queue length does an incoming req see
system.mem_ctrl.wrQLenPdf::23                       0                       # What write queue length does an incoming req see
system.mem_ctrl.wrQLenPdf::24                       0                       # What write queue length does an incoming req see
system.mem_ctrl.wrQLenPdf::25                       0                       # What write queue length does an incoming req see
system.mem_ctrl.wrQLenPdf::26                       0                       # What write queue length does an incoming req see
system.mem_ctrl.wrQLenPdf::27                       0                       # What write queue length does an incoming req see
system.mem_ctrl.wrQLenPdf::28                       0                       # What write queue length does an incoming req see
system.mem_ctrl.wrQLenPdf::29                       0                       # What write queue length does an incoming req see
system.mem_ctrl.wrQLenPdf::30                       0                       # What write queue length does an incoming req see
system.mem_ctrl.wrQLenPdf::31                       0                       # What write queue length does an incoming req see
system.mem_ctrl.wrQLenPdf::32                       0                       # What write queue length does an incoming req see
system.mem_ctrl.wrQLenPdf::33                       0                       # What write queue length does an incoming req see
system.mem_ctrl.wrQLenPdf::34                       0                       # What write queue length does an incoming req see
system.mem_ctrl.wrQLenPdf::35                       0                       # What write queue length does an incoming req see
system.mem_ctrl.wrQLenPdf::36                       0                       # What write queue length does an incoming req see
system.mem_ctrl.wrQLenPdf::37                       0                       # What write queue length does an incoming req see
system.mem_ctrl.wrQLenPdf::38                       0                       # What write queue length does an incoming req see
system.mem_ctrl.wrQLenPdf::39                       0                       # What write queue length does an incoming req see
system.mem_ctrl.wrQLenPdf::40                       0                       # What write queue length does an incoming req see
system.mem_ctrl.wrQLenPdf::41                       0                       # What write queue length does an incoming req see
system.mem_ctrl.wrQLenPdf::42                       0                       # What write queue length does an incoming req see
system.mem_ctrl.wrQLenPdf::43                       0                       # What write queue length does an incoming req see
system.mem_ctrl.wrQLenPdf::44                       0                       # What write queue length does an incoming req see
system.mem_ctrl.wrQLenPdf::45                       0                       # What write queue length does an incoming req see
system.mem_ctrl.wrQLenPdf::46                       0                       # What write queue length does an incoming req see
system.mem_ctrl.wrQLenPdf::47                       0                       # What write queue length does an incoming req see
system.mem_ctrl.wrQLenPdf::48                       0                       # What write queue length does an incoming req see
system.mem_ctrl.wrQLenPdf::49                       0                       # What write queue length does an incoming req see
system.mem_ctrl.wrQLenPdf::50                       0                       # What write queue length does an incoming req see
system.mem_ctrl.wrQLenPdf::51                       0                       # What write queue length does an incoming req see
system.mem_ctrl.wrQLenPdf::52                       0                       # What write queue length does an incoming req see
system.mem_ctrl.wrQLenPdf::53                       0                       # What write queue length does an incoming req see
system.mem_ctrl.wrQLenPdf::54                       0                       # What write queue length does an incoming req see
system.mem_ctrl.wrQLenPdf::55                       0                       # What write queue length does an incoming req see
system.mem_ctrl.wrQLenPdf::56                       0                       # What write queue length does an incoming req see
system.mem_ctrl.wrQLenPdf::57                       0                       # What write queue length does an incoming req see
system.mem_ctrl.wrQLenPdf::58                       0                       # What write queue length does an incoming req see
system.mem_ctrl.wrQLenPdf::59                       0                       # What write queue length does an incoming req see
system.mem_ctrl.wrQLenPdf::60                       0                       # What write queue length does an incoming req see
system.mem_ctrl.wrQLenPdf::61                       0                       # What write queue length does an incoming req see
system.mem_ctrl.wrQLenPdf::62                       0                       # What write queue length does an incoming req see
system.mem_ctrl.wrQLenPdf::63                       0                       # What write queue length does an incoming req see
system.mem_ctrl.bytesReadWrQ                       64                       # Total number of bytes read from write queue
system.mem_ctrl.bytesReadSys                   759488                       # Total read bytes from the system interface side
system.mem_ctrl.bytesWrittenSys                  1216                       # Total written bytes from the system interface side
system.mem_ctrl.avgRdBWSys                      82.96                       # Average system read bandwidth in MiByte/s
system.mem_ctrl.avgWrBWSys                       0.13                       # Average system write bandwidth in MiByte/s
system.mem_ctrl.totGap                     9154980000                       # Total gap between requests
system.mem_ctrl.avgGap                      770232.21                       # Average gap between requests
system.mem_ctrl.requestorReadBytes::.cpu.inst       116928                       # Per-requestor bytes read from memory
system.mem_ctrl.requestorReadBytes::.cpu.data       642496                       # Per-requestor bytes read from memory
system.mem_ctrl.requestorReadRate::.cpu.inst 12771926.927118815482                       # Per-requestor bytes read from memory rate (Bytes/sec)
system.mem_ctrl.requestorReadRate::.cpu.data 70179186.875394523144                       # Per-requestor bytes read from memory rate (Bytes/sec)
system.mem_ctrl.requestorReadAccesses::.cpu.inst         1827                       # Per-requestor read serviced memory accesses
system.mem_ctrl.requestorReadAccesses::.cpu.data        10040                       # Per-requestor read serviced memory accesses
system.mem_ctrl.requestorWriteAccesses::.writebacks           19                       # Per-requestor write serviced memory accesses
system.mem_ctrl.requestorReadTotalLat::.cpu.inst     49987500                       # Per-requestor read total memory access latency
system.mem_ctrl.requestorReadTotalLat::.cpu.data    311370500                       # Per-requestor read total memory access latency
system.mem_ctrl.requestorReadAvgLat::.cpu.inst     27360.43                       # Per-requestor read average memory access latency
system.mem_ctrl.requestorReadAvgLat::.cpu.data     31013.00                       # Per-requestor read average memory access latency
system.mem_ctrl.requestorWriteAvgLat::.writebacks         0.00                       # Per-requestor write average memory access latency
system.mem_ctrl.dram.bytes_read::.cpu.inst       116928                       # Number of bytes read from this memory
system.mem_ctrl.dram.bytes_read::.cpu.data       642560                       # Number of bytes read from this memory
system.mem_ctrl.dram.bytes_read::total         759488                       # Number of bytes read from this memory
system.mem_ctrl.dram.bytes_inst_read::.cpu.inst       116928                       # Number of instructions bytes read from this memory
system.mem_ctrl.dram.bytes_inst_read::total       116928                       # Number of instructions bytes read from this memory
system.mem_ctrl.dram.bytes_written::.writebacks         1216                       # Number of bytes written to this memory
system.mem_ctrl.dram.bytes_written::total         1216                       # Number of bytes written to this memory
system.mem_ctrl.dram.num_reads::.cpu.inst         1827                       # Number of read requests responded to by this memory
system.mem_ctrl.dram.num_reads::.cpu.data        10040                       # Number of read requests responded to by this memory
system.mem_ctrl.dram.num_reads::total           11867                       # Number of read requests responded to by this memory
system.mem_ctrl.dram.num_writes::.writebacks           19                       # Number of write requests responded to by this memory
system.mem_ctrl.dram.num_writes::total             19                       # Number of write requests responded to by this memory
system.mem_ctrl.dram.bw_read::.cpu.inst      12771927                       # Total read bandwidth from this memory (bytes/s)
system.mem_ctrl.dram.bw_read::.cpu.data      70186178                       # Total read bandwidth from this memory (bytes/s)
system.mem_ctrl.dram.bw_read::total          82958104                       # Total read bandwidth from this memory (bytes/s)
system.mem_ctrl.dram.bw_inst_read::.cpu.inst     12771927                       # Instruction read bandwidth from this memory (bytes/s)
system.mem_ctrl.dram.bw_inst_read::total     12771927                       # Instruction read bandwidth from this memory (bytes/s)
system.mem_ctrl.dram.bw_write::.writebacks       132822                       # Write bandwidth from this memory (bytes/s)
system.mem_ctrl.dram.bw_write::total           132822                       # Write bandwidth from this memory (bytes/s)
system.mem_ctrl.dram.bw_total::.writebacks       132822                       # Total bandwidth to/from this memory (bytes/s)
system.mem_ctrl.dram.bw_total::.cpu.inst     12771927                       # Total bandwidth to/from this memory (bytes/s)
system.mem_ctrl.dram.bw_total::.cpu.data     70186178                       # Total bandwidth to/from this memory (bytes/s)
system.mem_ctrl.dram.bw_total::total         83090927                       # Total bandwidth to/from this memory (bytes/s)
system.mem_ctrl.dram.readBursts                 11866                       # Number of DRAM read bursts
system.mem_ctrl.dram.writeBursts                    0                       # Number of DRAM write bursts
system.mem_ctrl.dram.perBankRdBursts::0           898                       # Per bank write bursts
system.mem_ctrl.dram.perBankRdBursts::1           588                       # Per bank write bursts
system.mem_ctrl.dram.perBankRdBursts::2           706                       # Per bank write bursts
system.mem_ctrl.dram.perBankRdBursts::3           677                       # Per bank write bursts
system.mem_ctrl.dram.perBankRdBursts::4           820                       # Per bank write bursts
system.mem_ctrl.dram.perBankRdBursts::5           921                       # Per bank write bursts
system.mem_ctrl.dram.perBankRdBursts::6           846                       # Per bank write bursts
system.mem_ctrl.dram.perBankRdBursts::7           875                       # Per bank write bursts
system.mem_ctrl.dram.perBankRdBursts::8           645                       # Per bank write bursts
system.mem_ctrl.dram.perBankRdBursts::9           801                       # Per bank write bursts
system.mem_ctrl.dram.perBankRdBursts::10          717                       # Per bank write bursts
system.mem_ctrl.dram.perBankRdBursts::11          774                       # Per bank write bursts
system.mem_ctrl.dram.perBankRdBursts::12          646                       # Per bank write bursts
system.mem_ctrl.dram.perBankRdBursts::13          626                       # Per bank write bursts
system.mem_ctrl.dram.perBankRdBursts::14          636                       # Per bank write bursts
system.mem_ctrl.dram.perBankRdBursts::15          690                       # Per bank write bursts
system.mem_ctrl.dram.perBankWrBursts::0             0                       # Per bank write bursts
system.mem_ctrl.dram.perBankWrBursts::1             0                       # Per bank write bursts
system.mem_ctrl.dram.perBankWrBursts::2             0                       # Per bank write bursts
system.mem_ctrl.dram.perBankWrBursts::3             0                       # Per bank write bursts
system.mem_ctrl.dram.perBankWrBursts::4             0                       # Per bank write bursts
system.mem_ctrl.dram.perBankWrBursts::5             0                       # Per bank write bursts
system.mem_ctrl.dram.perBankWrBursts::6             0                       # Per bank write bursts
system.mem_ctrl.dram.perBankWrBursts::7             0                       # Per bank write bursts
system.mem_ctrl.dram.perBankWrBursts::8             0                       # Per bank write bursts
system.mem_ctrl.dram.perBankWrBursts::9             0                       # Per bank write bursts
system.mem_ctrl.dram.perBankWrBursts::10            0                       # Per bank write bursts
system.mem_ctrl.dram.perBankWrBursts::11            0                       # Per bank write bursts
system.mem_ctrl.dram.perBankWrBursts::12            0                       # Per bank write bursts
system.mem_ctrl.dram.perBankWrBursts::13            0                       # Per bank write bursts
system.mem_ctrl.dram.perBankWrBursts::14            0                       # Per bank write bursts
system.mem_ctrl.dram.perBankWrBursts::15            0                       # Per bank write bursts
system.mem_ctrl.dram.totQLat                138870500                       # Total ticks spent queuing
system.mem_ctrl.dram.totBusLat               59330000                       # Total ticks spent in databus transfers
system.mem_ctrl.dram.totMemAccLat           361358000                       # Total ticks spent from burst creation until serviced by the DRAM
system.mem_ctrl.dram.avgQLat                 11703.23                       # Average queueing delay per DRAM burst
system.mem_ctrl.dram.avgBusLat                5000.00                       # Average bus latency per DRAM burst
system.mem_ctrl.dram.avgMemAccLat            30453.23                       # Average memory access latency per DRAM burst
system.mem_ctrl.dram.readRowHits                 6279                       # Number of row buffer hits during reads
system.mem_ctrl.dram.writeRowHits                   0                       # Number of row buffer hits during writes
system.mem_ctrl.dram.readRowHitRate             52.92                       # Row buffer hit rate for reads
system.mem_ctrl.dram.writeRowHitRate              nan                       # Row buffer hit rate for writes
system.mem_ctrl.dram.bytesPerActivate::samples         5581                       # Bytes accessed per row activation
system.mem_ctrl.dram.bytesPerActivate::mean   135.832288                       # Bytes accessed per row activation
system.mem_ctrl.dram.bytesPerActivate::gmean    95.378667                       # Bytes accessed per row activation
system.mem_ctrl.dram.bytesPerActivate::stdev   179.932175                       # Bytes accessed per row activation
system.mem_ctrl.dram.bytesPerActivate::0-127         3721     66.67%     66.67% # Bytes accessed per row activation
system.mem_ctrl.dram.bytesPerActivate::128-255         1251     22.42%     89.09% # Bytes accessed per row activation
system.mem_ctrl.dram.bytesPerActivate::256-383          214      3.83%     92.92% # Bytes accessed per row activation
system.mem_ctrl.dram.bytesPerActivate::384-511          108      1.94%     94.86% # Bytes accessed per row activation
system.mem_ctrl.dram.bytesPerActivate::512-639           65      1.16%     96.02% # Bytes accessed per row activation
system.mem_ctrl.dram.bytesPerActivate::640-767           47      0.84%     96.86% # Bytes accessed per row activation
system.mem_ctrl.dram.bytesPerActivate::768-895           28      0.50%     97.37% # Bytes accessed per row activation
system.mem_ctrl.dram.bytesPerActivate::896-1023           32      0.57%     97.94% # Bytes accessed per row activation
system.mem_ctrl.dram.bytesPerActivate::1024-1151          115      2.06%    100.00% # Bytes accessed per row activation
system.mem_ctrl.dram.bytesPerActivate::total         5581                       # Bytes accessed per row activation
system.mem_ctrl.dram.bytesRead                 759424                       # Total number of bytes read from DRAM
system.mem_ctrl.dram.bytesWritten                   0                       # Total number of bytes written to DRAM
system.mem_ctrl.dram.avgRdBW                82.951114                       # Average DRAM read bandwidth in MiBytes/s
system.mem_ctrl.dram.avgWrBW                        0                       # Average DRAM write bandwidth in MiBytes/s
system.mem_ctrl.dram.peakBW                  12800.00                       # Theoretical peak bandwidth in MiByte/s
system.mem_ctrl.dram.busUtil                     0.65                       # Data bus utilization in percentage
system.mem_ctrl.dram.busUtilRead                 0.65                       # Data bus utilization in percentage for reads
system.mem_ctrl.dram.busUtilWrite                0.00                       # Data bus utilization in percentage for writes
system.mem_ctrl.dram.pageHitRate                52.92                       # Row buffer hit rate, read and write combined
system.mem_ctrl.dram.power_state.pwrStateResidencyTicks::UNDEFINED   9155079000                       # Cumulative time (in ticks) in various power states
system.mem_ctrl.dram.rank0.actEnergy         20698860                       # Energy for activate commands per rank (pJ)
system.mem_ctrl.dram.rank0.preEnergy         10986525                       # Energy for precharge commands per rank (pJ)
system.mem_ctrl.dram.rank0.readEnergy        45203340                       # Energy for read commands per rank (pJ)
system.mem_ctrl.dram.rank0.writeEnergy              0                       # Energy for write commands per rank (pJ)
system.mem_ctrl.dram.rank0.refreshEnergy 722202000.000000                       # Energy for refresh commands per rank (pJ)
system.mem_ctrl.dram.rank0.actBackEnergy   2866005600                       # Energy for active background per rank (pJ)
system.mem_ctrl.dram.rank0.preBackEnergy   1102072320                       # Energy for precharge background per rank (pJ)
system.mem_ctrl.dram.rank0.actPowerDownEnergy            0                       # Energy for active power-down per rank (pJ)
system.mem_ctrl.dram.rank0.prePowerDownEnergy            0                       # Energy for precharge power-down per rank (pJ)
system.mem_ctrl.dram.rank0.selfRefreshEnergy            0                       # Energy for self refresh per rank (pJ)
system.mem_ctrl.dram.rank0.totalEnergy     4767168645                       # Total energy per rank (pJ)
system.mem_ctrl.dram.rank0.averagePower    520.712999                       # Core power per rank (mW)
system.mem_ctrl.dram.rank0.totalIdleTime            0                       # Total Idle time Per DRAM Rank
system.mem_ctrl.dram.rank0.pwrStateTime::IDLE   2837040000                       # Time in different power states
system.mem_ctrl.dram.rank0.pwrStateTime::REF    305500000                       # Time in different power states
system.mem_ctrl.dram.rank0.pwrStateTime::SREF            0                       # Time in different power states
system.mem_ctrl.dram.rank0.pwrStateTime::PRE_PDN            0                       # Time in different power states
system.mem_ctrl.dram.rank0.pwrStateTime::ACT   6012539000                       # Time in different power states
system.mem_ctrl.dram.rank0.pwrStateTime::ACT_PDN            0                       # Time in different power states
system.mem_ctrl.dram.rank1.actEnergy         19192320                       # Energy for activate commands per rank (pJ)
system.mem_ctrl.dram.rank1.preEnergy         10193370                       # Energy for precharge commands per rank (pJ)
system.mem_ctrl.dram.rank1.readEnergy        39519900                       # Energy for read commands per rank (pJ)
system.mem_ctrl.dram.rank1.writeEnergy              0                       # Energy for write commands per rank (pJ)
system.mem_ctrl.dram.rank1.refreshEnergy 722202000.000000                       # Energy for refresh commands per rank (pJ)
system.mem_ctrl.dram.rank1.actBackEnergy   2787818700                       # Energy for active background per rank (pJ)
system.mem_ctrl.dram.rank1.preBackEnergy   1167913920                       # Energy for precharge background per rank (pJ)
system.mem_ctrl.dram.rank1.actPowerDownEnergy            0                       # Energy for active power-down per rank (pJ)
system.mem_ctrl.dram.rank1.prePowerDownEnergy            0                       # Energy for precharge power-down per rank (pJ)
system.mem_ctrl.dram.rank1.selfRefreshEnergy            0                       # Energy for self refresh per rank (pJ)
system.mem_ctrl.dram.rank1.totalEnergy     4746840210                       # Total energy per rank (pJ)
system.mem_ctrl.dram.rank1.averagePower    518.492545                       # Core power per rank (mW)
system.mem_ctrl.dram.rank1.totalIdleTime            0                       # Total Idle time Per DRAM Rank
system.mem_ctrl.dram.rank1.pwrStateTime::IDLE   3009591750                       # Time in different power states
system.mem_ctrl.dram.rank1.pwrStateTime::REF    305500000                       # Time in different power states
system.mem_ctrl.dram.rank1.pwrStateTime::SREF            0                       # Time in different power states
system.mem_ctrl.dram.rank1.pwrStateTime::PRE_PDN            0                       # Time in different power states
system.mem_ctrl.dram.rank1.pwrStateTime::ACT   5839987250                       # Time in different power states
system.mem_ctrl.dram.rank1.pwrStateTime::ACT_PDN            0                       # Time in different power states
system.mem_ctrl.power_state.pwrStateResidencyTicks::UNDEFINED   9155079000                       # Cumulative time (in ticks) in various power states
system.membus.trans_dist::ReadResp              10202                       # Transaction distribution
system.membus.trans_dist::WritebackDirty           19                       # Transaction distribution
system.membus.trans_dist::CleanEvict               90                       # Transaction distribution
system.membus.trans_dist::ReadExReq              1665                       # Transaction distribution
system.membus.trans_dist::ReadExResp             1665                       # Transaction distribution
system.membus.trans_dist::ReadSharedReq         10202                       # Transaction distribution
system.membus.pkt_count_system.l2cache.mem_side_port::system.mem_ctrl.port        23843                       # Packet count per connected requestor and responder (bytes)
system.membus.pkt_count_system.l2cache.mem_side_port::total        23843                       # Packet count per connected requestor and responder (bytes)
system.membus.pkt_count::total                  23843                       # Packet count per connected requestor and responder (bytes)
system.membus.pkt_size_system.l2cache.mem_side_port::system.mem_ctrl.port       760704                       # Cumulative packet size per connected requestor and responder (bytes)
system.membus.pkt_size_system.l2cache.mem_side_port::total       760704                       # Cumulative packet size per connected requestor and responder (bytes)
system.membus.pkt_size::total                  760704                       # Cumulative packet size per connected requestor and responder (bytes)
system.membus.snoops                                0                       # Total snoops (count)
system.membus.snoopTraffic                          0                       # Total snoop traffic (bytes)
system.membus.snoop_fanout::samples             11867                       # Request fanout histogram
system.membus.snoop_fanout::mean                    0                       # Request fanout histogram
system.membus.snoop_fanout::stdev                   0                       # Request fanout histogram
system.membus.snoop_fanout::underflows              0      0.00%      0.00% # Request fanout histogram
system.membus.snoop_fanout::0                   11867    100.00%    100.00% # Request fanout histogram
system.membus.snoop_fanout::1                       0      0.00%    100.00% # Request fanout histogram
system.membus.snoop_fanout::overflows               0      0.00%    100.00% # Request fanout histogram
system.membus.snoop_fanout::min_value               0                       # Request fanout histogram
system.membus.snoop_fanout::max_value               0                       # Request fanout histogram
system.membus.snoop_fanout::total               11867                       # Request fanout histogram
system.membus.power_state.pwrStateResidencyTicks::UNDEFINED   9155079000                       # Cumulative time (in ticks) in various power states
system.membus.reqLayer2.occupancy            12052000                       # Layer occupancy (ticks)
system.membus.reqLayer2.utilization               0.1                       # Layer utilization (%)
system.membus.respLayer0.occupancy           63856000                       # Layer occupancy (ticks)
system.membus.respLayer0.utilization              0.7                       # Layer utilization (%)

---------- End Simulation Statistics   ----------
