Global frequency set at 1000000000000 ticks per second
Redirecting stdout to /data/home/nta52/gem5-adaptive-bypass-cache-project/slurm_evaluation/results/X86/adaptive_eval/stack-print/2MB/AdaptiveBypassRP/simout
Redirecting stderr to /data/home/nta52/gem5-adaptive-bypass-cache-project/slurm_evaluation/results/X86/adaptive_eval/stack-print/2MB/AdaptiveBypassRP/simerr
gem5 Simulator System.  http://gem5.org
gem5 is copyrighted software; use the --copyright option for details.

gem5 version 20.1.0.2
gem5 compiled Mar 18 2026 08:16:53
gem5 started Mar 24 2026 04:12:10
gem5 executing on ARCH-750, pid 3142692
command line: /data/home/nta52/gem5-adaptive-bypass-cache-project/build/X86/gem5.opt -re --outdir=/data/home/nta52/gem5-adaptive-bypass-cache-project/slurm_evaluation/results/X86/adaptive_eval/stack-print/2MB/AdaptiveBypassRP /data/home/nta52/gem5-adaptive-bypass-cache-project/configs/evaluation/run_benchmark.py --l2_size 2MB --l2_rp AdaptiveBypassRP /data/home/nta52/gem5-adaptive-bypass-cache-project/tests/test-progs/stack-print/bin/x86/linux/stack-print

info: Standard input is not a terminal, disabling listeners.
Beginning simulation with L2=2MB, RP=AdaptiveBypassRP
0x7fffffffec8c: argc: [1]

0x7fffffffeda8: argv[0]: [/data/home/nta52/gem5-adaptive-bypass-cache-project/tests/test-progs/stack-print/bin/x86/linux/stack-print]

0x7fffffffedb8: envp[0]: [OMP_NUM_THREADS=1]

0x7fffffffedc8: AT_SYSINFO_EHDR: [ffffffffff600000]
0x7fffffffedd8: AT_HWCAP: [78bfbff]
0x7fffffffede8: AT_PAGESZ: [1000]
0x7fffffffedf8: AT_CLKTCK: [64]
0x7fffffffee08: AT_PHDR: [400040]
0x7fffffffee18: AT_PHENT: [38]
0x7fffffffee28: AT_PHNUM: [9]
0x7fffffffee38: AT_BASE: [7ffff7fff000]
0x7fffffffee48: AT_FLAGS: [0]
0x7fffffffee58: AT_ENTRY: [400480]
0x7fffffffee68: AT_UID: [64]
0x7fffffffee78: AT_EUID: [64]
0x7fffffffee88: AT_GID: [64]
0x7fffffffee98: AT_EGID: [64]
0x7fffffffeea8: AT_SECURE: [0]
0x7fffffffeeb8: AT_RANDOM: [7fffffffeef9]
0x7fffffffeec8: AT_EXECFN: [7fffffffeda8]
0x7fffffffeed8: AT_PLATFORM: [7fffffffef09]

Exit @ tick 1052655000 because exiting with last active thread context
