
---------- Begin Simulation Statistics ----------
final_tick                               1238443320000                       # Number of ticks from beginning of simulation (restored from checkpoints and never reset)
host_inst_rate                                 453839                       # Simulator instruction rate (inst/s)
host_mem_usage                                 668996                       # Number of bytes of host memory used
host_op_rate                                   832852                       # Simulator op (including micro ops) rate (op/s)
host_seconds                                   654.82                       # Real time elapsed on the host
host_tick_rate                             1891284056                       # Simulator tick rate (ticks/s)
sim_freq                                 1000000000000                       # Frequency of simulated ticks
sim_insts                                   297181042                       # Number of instructions simulated
sim_ops                                     545364656                       # Number of ops (including micro ops) simulated
sim_seconds                                  1.238443                       # Number of seconds simulated
sim_ticks                                1238443320000                       # Number of ticks simulated
system.cpu.Branches                          49473280                       # Number of branches fetched
system.cpu.committedInsts                   297181042                       # Number of instructions committed
system.cpu.committedOps                     545364656                       # Number of ops (including micro ops) committed
system.cpu.idle_fraction                     0.000000                       # Percentage of idle cycles
system.cpu.not_idle_fraction                 1.000000                       # Percentage of non-idle cycles
system.cpu.numCycles                       1238443320                       # number of cpu cycles simulated
system.cpu.numWorkItemsCompleted                    0                       # number of work items this cpu completed
system.cpu.numWorkItemsStarted                      0                       # number of work items this cpu started
system.cpu.num_busy_cycles               1238443319.999000                       # Number of busy cycles
system.cpu.num_cc_register_reads            252086620                       # number of times the CC registers were read
system.cpu.num_cc_register_writes           180867069                       # number of times the CC registers were written
system.cpu.num_conditional_control_insts     49270102                       # number of instructions that are conditional controls
system.cpu.num_fp_alu_accesses              184508638                       # Number of float alu accesses
system.cpu.num_fp_insts                     184508638                       # number of float instructions
system.cpu.num_fp_register_reads            225216963                       # number of times the floating registers were read
system.cpu.num_fp_register_writes           180499653                       # number of times the floating registers were written
system.cpu.num_func_calls                       81596                       # number of times a function call or return occured
system.cpu.num_idle_cycles                   0.001000                       # Number of idle cycles
system.cpu.num_int_alu_accesses             435906731                       # Number of integer alu accesses
system.cpu.num_int_insts                    435906731                       # number of integer instructions
system.cpu.num_int_register_reads           778693231                       # number of times the integer registers were read
system.cpu.num_int_register_writes          309382779                       # number of times the integer registers were written
system.cpu.num_load_insts                   111390491                       # Number of load instructions
system.cpu.num_mem_refs                     116747166                       # number of memory refs
system.cpu.num_store_insts                    5356675                       # Number of store instructions
system.cpu.num_vec_alu_accesses                     0                       # Number of vector alu accesses
system.cpu.num_vec_insts                            0                       # number of vector instructions
system.cpu.num_vec_register_reads                   0                       # number of times the vector registers were read
system.cpu.num_vec_register_writes                  0                       # number of times the vector registers were written
system.cpu.op_class::No_OpClass                710629      0.13%      0.13% # Class of executed instruction
system.cpu.op_class::IntAlu                 322694337     59.17%     59.30% # Class of executed instruction
system.cpu.op_class::IntMult                    30102      0.01%     59.31% # Class of executed instruction
system.cpu.op_class::IntDiv                       630      0.00%     59.31% # Class of executed instruction
system.cpu.op_class::FloatAdd                33737834      6.19%     65.49% # Class of executed instruction
system.cpu.op_class::FloatCmp                       0      0.00%     65.49% # Class of executed instruction
system.cpu.op_class::FloatCvt                       0      0.00%     65.49% # Class of executed instruction
system.cpu.op_class::FloatMult                      0      0.00%     65.49% # Class of executed instruction
system.cpu.op_class::FloatMultAcc                   0      0.00%     65.49% # Class of executed instruction
system.cpu.op_class::FloatDiv                       0      0.00%     65.49% # Class of executed instruction
system.cpu.op_class::FloatMisc                      0      0.00%     65.49% # Class of executed instruction
system.cpu.op_class::FloatSqrt                      0      0.00%     65.49% # Class of executed instruction
system.cpu.op_class::SimdAdd                    76762      0.01%     65.51% # Class of executed instruction
system.cpu.op_class::SimdAddAcc                     0      0.00%     65.51% # Class of executed instruction
system.cpu.op_class::SimdAlu                    60252      0.01%     65.52% # Class of executed instruction
system.cpu.op_class::SimdCmp                       24      0.00%     65.52% # Class of executed instruction
system.cpu.op_class::SimdCvt                     1170      0.00%     65.52% # Class of executed instruction
system.cpu.op_class::SimdMisc                  125019      0.02%     65.54% # Class of executed instruction
system.cpu.op_class::SimdMult                       0      0.00%     65.54% # Class of executed instruction
system.cpu.op_class::SimdMultAcc                    0      0.00%     65.54% # Class of executed instruction
system.cpu.op_class::SimdShift                      0      0.00%     65.54% # Class of executed instruction
system.cpu.op_class::SimdShiftAcc                   0      0.00%     65.54% # Class of executed instruction
system.cpu.op_class::SimdDiv                        0      0.00%     65.54% # Class of executed instruction
system.cpu.op_class::SimdSqrt                       0      0.00%     65.54% # Class of executed instruction
system.cpu.op_class::SimdFloatAdd            35512541      6.51%     72.05% # Class of executed instruction
system.cpu.op_class::SimdFloatAlu                   0      0.00%     72.05% # Class of executed instruction
system.cpu.op_class::SimdFloatCmp                   0      0.00%     72.05% # Class of executed instruction
system.cpu.op_class::SimdFloatCvt              101637      0.02%     72.07% # Class of executed instruction
system.cpu.op_class::SimdFloatDiv                 835      0.00%     72.07% # Class of executed instruction
system.cpu.op_class::SimdFloatMisc                  0      0.00%     72.07% # Class of executed instruction
system.cpu.op_class::SimdFloatMult           35565797      6.52%     78.59% # Class of executed instruction
system.cpu.op_class::SimdFloatMultAcc               0      0.00%     78.59% # Class of executed instruction
system.cpu.op_class::SimdFloatSqrt                 32      0.00%     78.59% # Class of executed instruction
system.cpu.op_class::SimdReduceAdd                  0      0.00%     78.59% # Class of executed instruction
system.cpu.op_class::SimdReduceAlu                  0      0.00%     78.59% # Class of executed instruction
system.cpu.op_class::SimdReduceCmp                  0      0.00%     78.59% # Class of executed instruction
system.cpu.op_class::SimdFloatReduceAdd             0      0.00%     78.59% # Class of executed instruction
system.cpu.op_class::SimdFloatReduceCmp             0      0.00%     78.59% # Class of executed instruction
system.cpu.op_class::SimdAes                        0      0.00%     78.59% # Class of executed instruction
system.cpu.op_class::SimdAesMix                     0      0.00%     78.59% # Class of executed instruction
system.cpu.op_class::SimdSha1Hash                   0      0.00%     78.59% # Class of executed instruction
system.cpu.op_class::SimdSha1Hash2                  0      0.00%     78.59% # Class of executed instruction
system.cpu.op_class::SimdSha256Hash                 0      0.00%     78.59% # Class of executed instruction
system.cpu.op_class::SimdSha256Hash2                0      0.00%     78.59% # Class of executed instruction
system.cpu.op_class::SimdShaSigma2                  0      0.00%     78.59% # Class of executed instruction
system.cpu.op_class::SimdShaSigma3                  0      0.00%     78.59% # Class of executed instruction
system.cpu.op_class::SimdPredAlu                    0      0.00%     78.59% # Class of executed instruction
system.cpu.op_class::MemRead                 39670304      7.27%     85.87% # Class of executed instruction
system.cpu.op_class::MemWrite                 1421540      0.26%     86.13% # Class of executed instruction
system.cpu.op_class::FloatMemRead            71720187     13.15%     99.28% # Class of executed instruction
system.cpu.op_class::FloatMemWrite            3935135      0.72%    100.00% # Class of executed instruction
system.cpu.op_class::IprAccess                      0      0.00%    100.00% # Class of executed instruction
system.cpu.op_class::InstPrefetch                   0      0.00%    100.00% # Class of executed instruction
system.cpu.op_class::total                  545364767                       # Class of executed instruction
system.cpu.workload.numSyscalls                    87                       # Number of system calls
system.l2bus.snoop_filter.hit_multi_requests            0                       # Number of requests hitting in the snoop filter with multiple (>1) holders of the requested data.
system.l2bus.snoop_filter.hit_multi_snoops            0                       # Number of snoops hitting in the snoop filter with multiple (>1) holders of the requested data.
system.l2bus.snoop_filter.hit_single_requests      6626203                       # Number of requests hitting in the snoop filter with a single holder of the requested data.
system.l2bus.snoop_filter.hit_single_snoops        17730                       # Number of snoops hitting in the snoop filter with a single holder of the requested data.
system.l2bus.snoop_filter.tot_requests       13253686                       # Total number of requests made to the snoop filter.
system.l2bus.snoop_filter.tot_snoops            17730                       # Total number of snoops made to the snoop filter.
system.membus.snoop_filter.hit_multi_requests            0                       # Number of requests hitting in the snoop filter with multiple (>1) holders of the requested data.
system.membus.snoop_filter.hit_multi_snoops            0                       # Number of snoops hitting in the snoop filter with multiple (>1) holders of the requested data.
system.membus.snoop_filter.hit_single_requests       239330                       # Number of requests hitting in the snoop filter with a single holder of the requested data.
system.membus.snoop_filter.hit_single_snoops            0                       # Number of snoops hitting in the snoop filter with a single holder of the requested data.
system.membus.snoop_filter.tot_requests        495087                       # Total number of requests made to the snoop filter.
system.membus.snoop_filter.tot_snoops               0                       # Total number of snoops made to the snoop filter.
system.clk_domain.clock                          1000                       # Clock period in ticks
system.clk_domain.voltage_domain.voltage            1                       # Voltage in Volts
system.cpu.dcache.demand_hits::.cpu.data    110150277                       # number of demand (read+write) hits
system.cpu.dcache.demand_hits::total        110150277                       # number of demand (read+write) hits
system.cpu.dcache.overall_hits::.cpu.data    110150277                       # number of overall hits
system.cpu.dcache.overall_hits::total       110150277                       # number of overall hits
system.cpu.dcache.demand_misses::.cpu.data      6608747                       # number of demand (read+write) misses
system.cpu.dcache.demand_misses::total        6608747                       # number of demand (read+write) misses
system.cpu.dcache.overall_misses::.cpu.data      6608747                       # number of overall misses
system.cpu.dcache.overall_misses::total       6608747                       # number of overall misses
system.cpu.dcache.demand_miss_latency::.cpu.data 190645816000                       # number of demand (read+write) miss cycles
system.cpu.dcache.demand_miss_latency::total 190645816000                       # number of demand (read+write) miss cycles
system.cpu.dcache.overall_miss_latency::.cpu.data 190645816000                       # number of overall miss cycles
system.cpu.dcache.overall_miss_latency::total 190645816000                       # number of overall miss cycles
system.cpu.dcache.demand_accesses::.cpu.data    116759024                       # number of demand (read+write) accesses
system.cpu.dcache.demand_accesses::total    116759024                       # number of demand (read+write) accesses
system.cpu.dcache.overall_accesses::.cpu.data    116759024                       # number of overall (read+write) accesses
system.cpu.dcache.overall_accesses::total    116759024                       # number of overall (read+write) accesses
system.cpu.dcache.demand_miss_rate::.cpu.data     0.056602                       # miss rate for demand accesses
system.cpu.dcache.demand_miss_rate::total     0.056602                       # miss rate for demand accesses
system.cpu.dcache.overall_miss_rate::.cpu.data     0.056602                       # miss rate for overall accesses
system.cpu.dcache.overall_miss_rate::total     0.056602                       # miss rate for overall accesses
system.cpu.dcache.demand_avg_miss_latency::.cpu.data 28847.498020                       # average overall miss latency
system.cpu.dcache.demand_avg_miss_latency::total 28847.498020                       # average overall miss latency
system.cpu.dcache.overall_avg_miss_latency::.cpu.data 28847.498020                       # average overall miss latency
system.cpu.dcache.overall_avg_miss_latency::total 28847.498020                       # average overall miss latency
system.cpu.dcache.blocked_cycles::no_mshrs            0                       # number of cycles access was blocked
system.cpu.dcache.blocked_cycles::no_targets            0                       # number of cycles access was blocked
system.cpu.dcache.blocked::no_mshrs                 0                       # number of cycles access was blocked
system.cpu.dcache.blocked::no_targets               0                       # number of cycles access was blocked
system.cpu.dcache.avg_blocked_cycles::no_mshrs          nan                       # average number of cycles each access was blocked
system.cpu.dcache.avg_blocked_cycles::no_targets          nan                       # average number of cycles each access was blocked
system.cpu.dcache.writebacks::.writebacks      2935206                       # number of writebacks
system.cpu.dcache.writebacks::total           2935206                       # number of writebacks
system.cpu.dcache.demand_mshr_misses::.cpu.data      6608747                       # number of demand (read+write) MSHR misses
system.cpu.dcache.demand_mshr_misses::total      6608747                       # number of demand (read+write) MSHR misses
system.cpu.dcache.overall_mshr_misses::.cpu.data      6608747                       # number of overall MSHR misses
system.cpu.dcache.overall_mshr_misses::total      6608747                       # number of overall MSHR misses
system.cpu.dcache.demand_mshr_miss_latency::.cpu.data 177428322000                       # number of demand (read+write) MSHR miss cycles
system.cpu.dcache.demand_mshr_miss_latency::total 177428322000                       # number of demand (read+write) MSHR miss cycles
system.cpu.dcache.overall_mshr_miss_latency::.cpu.data 177428322000                       # number of overall MSHR miss cycles
system.cpu.dcache.overall_mshr_miss_latency::total 177428322000                       # number of overall MSHR miss cycles
system.cpu.dcache.demand_mshr_miss_rate::.cpu.data     0.056602                       # mshr miss rate for demand accesses
system.cpu.dcache.demand_mshr_miss_rate::total     0.056602                       # mshr miss rate for demand accesses
system.cpu.dcache.overall_mshr_miss_rate::.cpu.data     0.056602                       # mshr miss rate for overall accesses
system.cpu.dcache.overall_mshr_miss_rate::total     0.056602                       # mshr miss rate for overall accesses
system.cpu.dcache.demand_avg_mshr_miss_latency::.cpu.data 26847.498020                       # average overall mshr miss latency
system.cpu.dcache.demand_avg_mshr_miss_latency::total 26847.498020                       # average overall mshr miss latency
system.cpu.dcache.overall_avg_mshr_miss_latency::.cpu.data 26847.498020                       # average overall mshr miss latency
system.cpu.dcache.overall_avg_mshr_miss_latency::total 26847.498020                       # average overall mshr miss latency
system.cpu.dcache.replacements                6607723                       # number of replacements
system.cpu.dcache.ReadReq_hits::.cpu.data    104904698                       # number of ReadReq hits
system.cpu.dcache.ReadReq_hits::total       104904698                       # number of ReadReq hits
system.cpu.dcache.ReadReq_misses::.cpu.data      6490776                       # number of ReadReq misses
system.cpu.dcache.ReadReq_misses::total       6490776                       # number of ReadReq misses
system.cpu.dcache.ReadReq_miss_latency::.cpu.data 185336706000                       # number of ReadReq miss cycles
system.cpu.dcache.ReadReq_miss_latency::total 185336706000                       # number of ReadReq miss cycles
system.cpu.dcache.ReadReq_accesses::.cpu.data    111395474                       # number of ReadReq accesses(hits+misses)
system.cpu.dcache.ReadReq_accesses::total    111395474                       # number of ReadReq accesses(hits+misses)
system.cpu.dcache.ReadReq_miss_rate::.cpu.data     0.058268                       # miss rate for ReadReq accesses
system.cpu.dcache.ReadReq_miss_rate::total     0.058268                       # miss rate for ReadReq accesses
system.cpu.dcache.ReadReq_avg_miss_latency::.cpu.data 28553.859508                       # average ReadReq miss latency
system.cpu.dcache.ReadReq_avg_miss_latency::total 28553.859508                       # average ReadReq miss latency
system.cpu.dcache.ReadReq_mshr_misses::.cpu.data      6490776                       # number of ReadReq MSHR misses
system.cpu.dcache.ReadReq_mshr_misses::total      6490776                       # number of ReadReq MSHR misses
system.cpu.dcache.ReadReq_mshr_miss_latency::.cpu.data 172355154000                       # number of ReadReq MSHR miss cycles
system.cpu.dcache.ReadReq_mshr_miss_latency::total 172355154000                       # number of ReadReq MSHR miss cycles
system.cpu.dcache.ReadReq_mshr_miss_rate::.cpu.data     0.058268                       # mshr miss rate for ReadReq accesses
system.cpu.dcache.ReadReq_mshr_miss_rate::total     0.058268                       # mshr miss rate for ReadReq accesses
system.cpu.dcache.ReadReq_avg_mshr_miss_latency::.cpu.data 26553.859508                       # average ReadReq mshr miss latency
system.cpu.dcache.ReadReq_avg_mshr_miss_latency::total 26553.859508                       # average ReadReq mshr miss latency
system.cpu.dcache.WriteReq_hits::.cpu.data      5245579                       # number of WriteReq hits
system.cpu.dcache.WriteReq_hits::total        5245579                       # number of WriteReq hits
system.cpu.dcache.WriteReq_misses::.cpu.data       117971                       # number of WriteReq misses
system.cpu.dcache.WriteReq_misses::total       117971                       # number of WriteReq misses
system.cpu.dcache.WriteReq_miss_latency::.cpu.data   5309110000                       # number of WriteReq miss cycles
system.cpu.dcache.WriteReq_miss_latency::total   5309110000                       # number of WriteReq miss cycles
system.cpu.dcache.WriteReq_accesses::.cpu.data      5363550                       # number of WriteReq accesses(hits+misses)
system.cpu.dcache.WriteReq_accesses::total      5363550                       # number of WriteReq accesses(hits+misses)
system.cpu.dcache.WriteReq_miss_rate::.cpu.data     0.021995                       # miss rate for WriteReq accesses
system.cpu.dcache.WriteReq_miss_rate::total     0.021995                       # miss rate for WriteReq accesses
system.cpu.dcache.WriteReq_avg_miss_latency::.cpu.data 45003.517814                       # average WriteReq miss latency
system.cpu.dcache.WriteReq_avg_miss_latency::total 45003.517814                       # average WriteReq miss latency
system.cpu.dcache.WriteReq_mshr_misses::.cpu.data       117971                       # number of WriteReq MSHR misses
system.cpu.dcache.WriteReq_mshr_misses::total       117971                       # number of WriteReq MSHR misses
system.cpu.dcache.WriteReq_mshr_miss_latency::.cpu.data   5073168000                       # number of WriteReq MSHR miss cycles
system.cpu.dcache.WriteReq_mshr_miss_latency::total   5073168000                       # number of WriteReq MSHR miss cycles
system.cpu.dcache.WriteReq_mshr_miss_rate::.cpu.data     0.021995                       # mshr miss rate for WriteReq accesses
system.cpu.dcache.WriteReq_mshr_miss_rate::total     0.021995                       # mshr miss rate for WriteReq accesses
system.cpu.dcache.WriteReq_avg_mshr_miss_latency::.cpu.data 43003.517814                       # average WriteReq mshr miss latency
system.cpu.dcache.WriteReq_avg_mshr_miss_latency::total 43003.517814                       # average WriteReq mshr miss latency
system.cpu.dcache.power_state.pwrStateResidencyTicks::UNDEFINED 1238443320000                       # Cumulative time (in ticks) in various power states
system.cpu.dcache.tags.tagsinuse          1023.737754                       # Cycle average of tags in use
system.cpu.dcache.tags.total_refs           116759024                       # Total number of references to valid blocks.
system.cpu.dcache.tags.sampled_refs           6608747                       # Sample count of references to valid blocks.
system.cpu.dcache.tags.avg_refs             17.667347                       # Average number of references to valid blocks.
system.cpu.dcache.tags.warmup_cycle            224000                       # Cycle when the warmup percentage was hit.
system.cpu.dcache.tags.occ_blocks::.cpu.data  1023.737754                       # Average occupied blocks per requestor
system.cpu.dcache.tags.occ_percent::.cpu.data     0.999744                       # Average percentage of cache occupancy
system.cpu.dcache.tags.occ_percent::total     0.999744                       # Average percentage of cache occupancy
system.cpu.dcache.tags.occ_task_id_blocks::1024         1024                       # Occupied blocks per task id
system.cpu.dcache.tags.age_task_id_blocks_1024::0           26                       # Occupied blocks per task id
system.cpu.dcache.tags.age_task_id_blocks_1024::1          112                       # Occupied blocks per task id
system.cpu.dcache.tags.age_task_id_blocks_1024::2          806                       # Occupied blocks per task id
system.cpu.dcache.tags.age_task_id_blocks_1024::3           80                       # Occupied blocks per task id
system.cpu.dcache.tags.occ_task_id_percent::1024            1                       # Percentage of cache occupancy per task id
system.cpu.dcache.tags.tag_accesses         240126795                       # Number of tag accesses
system.cpu.dcache.tags.data_accesses        240126795                       # Number of data accesses
system.cpu.dcache.tags.power_state.pwrStateResidencyTicks::UNDEFINED 1238443320000                       # Cumulative time (in ticks) in various power states
system.cpu.dtb.rdAccesses                   111395475                       # TLB accesses on read requests
system.cpu.dtb.wrAccesses                     5363573                       # TLB accesses on write requests
system.cpu.dtb.rdMisses                        115974                       # TLB misses on read requests
system.cpu.dtb.wrMisses                          1462                       # TLB misses on write requests
system.cpu.dtb.walker.power_state.pwrStateResidencyTicks::UNDEFINED 1238443320000                       # Cumulative time (in ticks) in various power states
system.cpu.icache.demand_hits::.cpu.inst    413236145                       # number of demand (read+write) hits
system.cpu.icache.demand_hits::total        413236145                       # number of demand (read+write) hits
system.cpu.icache.overall_hits::.cpu.inst    413236145                       # number of overall hits
system.cpu.icache.overall_hits::total       413236145                       # number of overall hits
system.cpu.icache.demand_misses::.cpu.inst        18736                       # number of demand (read+write) misses
system.cpu.icache.demand_misses::total          18736                       # number of demand (read+write) misses
system.cpu.icache.overall_misses::.cpu.inst        18736                       # number of overall misses
system.cpu.icache.overall_misses::total         18736                       # number of overall misses
system.cpu.icache.demand_miss_latency::.cpu.inst   1053449000                       # number of demand (read+write) miss cycles
system.cpu.icache.demand_miss_latency::total   1053449000                       # number of demand (read+write) miss cycles
system.cpu.icache.overall_miss_latency::.cpu.inst   1053449000                       # number of overall miss cycles
system.cpu.icache.overall_miss_latency::total   1053449000                       # number of overall miss cycles
system.cpu.icache.demand_accesses::.cpu.inst    413254881                       # number of demand (read+write) accesses
system.cpu.icache.demand_accesses::total    413254881                       # number of demand (read+write) accesses
system.cpu.icache.overall_accesses::.cpu.inst    413254881                       # number of overall (read+write) accesses
system.cpu.icache.overall_accesses::total    413254881                       # number of overall (read+write) accesses
system.cpu.icache.demand_miss_rate::.cpu.inst     0.000045                       # miss rate for demand accesses
system.cpu.icache.demand_miss_rate::total     0.000045                       # miss rate for demand accesses
system.cpu.icache.overall_miss_rate::.cpu.inst     0.000045                       # miss rate for overall accesses
system.cpu.icache.overall_miss_rate::total     0.000045                       # miss rate for overall accesses
system.cpu.icache.demand_avg_miss_latency::.cpu.inst 56225.928693                       # average overall miss latency
system.cpu.icache.demand_avg_miss_latency::total 56225.928693                       # average overall miss latency
system.cpu.icache.overall_avg_miss_latency::.cpu.inst 56225.928693                       # average overall miss latency
system.cpu.icache.overall_avg_miss_latency::total 56225.928693                       # average overall miss latency
system.cpu.icache.blocked_cycles::no_mshrs            0                       # number of cycles access was blocked
system.cpu.icache.blocked_cycles::no_targets            0                       # number of cycles access was blocked
system.cpu.icache.blocked::no_mshrs                 0                       # number of cycles access was blocked
system.cpu.icache.blocked::no_targets               0                       # number of cycles access was blocked
system.cpu.icache.avg_blocked_cycles::no_mshrs          nan                       # average number of cycles each access was blocked
system.cpu.icache.avg_blocked_cycles::no_targets          nan                       # average number of cycles each access was blocked
system.cpu.icache.demand_mshr_misses::.cpu.inst        18736                       # number of demand (read+write) MSHR misses
system.cpu.icache.demand_mshr_misses::total        18736                       # number of demand (read+write) MSHR misses
system.cpu.icache.overall_mshr_misses::.cpu.inst        18736                       # number of overall MSHR misses
system.cpu.icache.overall_mshr_misses::total        18736                       # number of overall MSHR misses
system.cpu.icache.demand_mshr_miss_latency::.cpu.inst   1015977000                       # number of demand (read+write) MSHR miss cycles
system.cpu.icache.demand_mshr_miss_latency::total   1015977000                       # number of demand (read+write) MSHR miss cycles
system.cpu.icache.overall_mshr_miss_latency::.cpu.inst   1015977000                       # number of overall MSHR miss cycles
system.cpu.icache.overall_mshr_miss_latency::total   1015977000                       # number of overall MSHR miss cycles
system.cpu.icache.demand_mshr_miss_rate::.cpu.inst     0.000045                       # mshr miss rate for demand accesses
system.cpu.icache.demand_mshr_miss_rate::total     0.000045                       # mshr miss rate for demand accesses
system.cpu.icache.overall_mshr_miss_rate::.cpu.inst     0.000045                       # mshr miss rate for overall accesses
system.cpu.icache.overall_mshr_miss_rate::total     0.000045                       # mshr miss rate for overall accesses
system.cpu.icache.demand_avg_mshr_miss_latency::.cpu.inst 54225.928693                       # average overall mshr miss latency
system.cpu.icache.demand_avg_mshr_miss_latency::total 54225.928693                       # average overall mshr miss latency
system.cpu.icache.overall_avg_mshr_miss_latency::.cpu.inst 54225.928693                       # average overall mshr miss latency
system.cpu.icache.overall_avg_mshr_miss_latency::total 54225.928693                       # average overall mshr miss latency
system.cpu.icache.replacements                  18480                       # number of replacements
system.cpu.icache.ReadReq_hits::.cpu.inst    413236145                       # number of ReadReq hits
system.cpu.icache.ReadReq_hits::total       413236145                       # number of ReadReq hits
system.cpu.icache.ReadReq_misses::.cpu.inst        18736                       # number of ReadReq misses
system.cpu.icache.ReadReq_misses::total         18736                       # number of ReadReq misses
system.cpu.icache.ReadReq_miss_latency::.cpu.inst   1053449000                       # number of ReadReq miss cycles
system.cpu.icache.ReadReq_miss_latency::total   1053449000                       # number of ReadReq miss cycles
system.cpu.icache.ReadReq_accesses::.cpu.inst    413254881                       # number of ReadReq accesses(hits+misses)
system.cpu.icache.ReadReq_accesses::total    413254881                       # number of ReadReq accesses(hits+misses)
system.cpu.icache.ReadReq_miss_rate::.cpu.inst     0.000045                       # miss rate for ReadReq accesses
system.cpu.icache.ReadReq_miss_rate::total     0.000045                       # miss rate for ReadReq accesses
system.cpu.icache.ReadReq_avg_miss_latency::.cpu.inst 56225.928693                       # average ReadReq miss latency
system.cpu.icache.ReadReq_avg_miss_latency::total 56225.928693                       # average ReadReq miss latency
system.cpu.icache.ReadReq_mshr_misses::.cpu.inst        18736                       # number of ReadReq MSHR misses
system.cpu.icache.ReadReq_mshr_misses::total        18736                       # number of ReadReq MSHR misses
system.cpu.icache.ReadReq_mshr_miss_latency::.cpu.inst   1015977000                       # number of ReadReq MSHR miss cycles
system.cpu.icache.ReadReq_mshr_miss_latency::total   1015977000                       # number of ReadReq MSHR miss cycles
system.cpu.icache.ReadReq_mshr_miss_rate::.cpu.inst     0.000045                       # mshr miss rate for ReadReq accesses
system.cpu.icache.ReadReq_mshr_miss_rate::total     0.000045                       # mshr miss rate for ReadReq accesses
system.cpu.icache.ReadReq_avg_mshr_miss_latency::.cpu.inst 54225.928693                       # average ReadReq mshr miss latency
system.cpu.icache.ReadReq_avg_mshr_miss_latency::total 54225.928693                       # average ReadReq mshr miss latency
system.cpu.icache.power_state.pwrStateResidencyTicks::UNDEFINED 1238443320000                       # Cumulative time (in ticks) in various power states
system.cpu.icache.tags.tagsinuse           255.989406                       # Cycle average of tags in use
system.cpu.icache.tags.total_refs           413254881                       # Total number of references to valid blocks.
system.cpu.icache.tags.sampled_refs             18736                       # Sample count of references to valid blocks.
system.cpu.icache.tags.avg_refs          22056.729345                       # Average number of references to valid blocks.
system.cpu.icache.tags.warmup_cycle            107000                       # Cycle when the warmup percentage was hit.
system.cpu.icache.tags.occ_blocks::.cpu.inst   255.989406                       # Average occupied blocks per requestor
system.cpu.icache.tags.occ_percent::.cpu.inst     0.999959                       # Average percentage of cache occupancy
system.cpu.icache.tags.occ_percent::total     0.999959                       # Average percentage of cache occupancy
system.cpu.icache.tags.occ_task_id_blocks::1024          256                       # Occupied blocks per task id
system.cpu.icache.tags.age_task_id_blocks_1024::0           35                       # Occupied blocks per task id
system.cpu.icache.tags.age_task_id_blocks_1024::1          116                       # Occupied blocks per task id
system.cpu.icache.tags.age_task_id_blocks_1024::2           98                       # Occupied blocks per task id
system.cpu.icache.tags.age_task_id_blocks_1024::4            7                       # Occupied blocks per task id
system.cpu.icache.tags.occ_task_id_percent::1024            1                       # Percentage of cache occupancy per task id
system.cpu.icache.tags.tag_accesses         826528498                       # Number of tag accesses
system.cpu.icache.tags.data_accesses        826528498                       # Number of data accesses
system.cpu.icache.tags.power_state.pwrStateResidencyTicks::UNDEFINED 1238443320000                       # Cumulative time (in ticks) in various power states
system.cpu.interrupts.clk_domain.clock          16000                       # Clock period in ticks
system.cpu.itb.rdAccesses                           0                       # TLB accesses on read requests
system.cpu.itb.wrAccesses                   413254881                       # TLB accesses on write requests
system.cpu.itb.rdMisses                             0                       # TLB misses on read requests
system.cpu.itb.wrMisses                           110                       # TLB misses on write requests
system.cpu.itb.walker.power_state.pwrStateResidencyTicks::UNDEFINED 1238443320000                       # Cumulative time (in ticks) in various power states
system.cpu.power_state.pwrStateResidencyTicks::ON 1238443320000                       # Cumulative time (in ticks) in various power states
system.cpu.thread_0.numInsts                        0                       # Number of Instructions committed
system.cpu.thread_0.numOps                          0                       # Number of Ops committed
system.cpu.thread_0.numMemRefs                      0                       # Number of Memory References
system.l2bus.trans_dist::ReadResp             6509512                       # Transaction distribution
system.l2bus.trans_dist::WritebackDirty       2969245                       # Transaction distribution
system.l2bus.trans_dist::CleanEvict           3909588                       # Transaction distribution
system.l2bus.trans_dist::ReadExReq             117971                       # Transaction distribution
system.l2bus.trans_dist::ReadExResp            117971                       # Transaction distribution
system.l2bus.trans_dist::ReadSharedReq        6509512                       # Transaction distribution
system.l2bus.pkt_count_system.cpu.icache.mem_side_port::system.l2cache.cpu_side_port        55952                       # Packet count per connected requestor and responder (bytes)
system.l2bus.pkt_count_system.cpu.dcache.mem_side_port::system.l2cache.cpu_side_port     19825217                       # Packet count per connected requestor and responder (bytes)
system.l2bus.pkt_count::total                19881169                       # Packet count per connected requestor and responder (bytes)
system.l2bus.pkt_size_system.cpu.icache.mem_side_port::system.l2cache.cpu_side_port      1199104                       # Cumulative packet size per connected requestor and responder (bytes)
system.l2bus.pkt_size_system.cpu.dcache.mem_side_port::system.l2cache.cpu_side_port    610812992                       # Cumulative packet size per connected requestor and responder (bytes)
system.l2bus.pkt_size::total                612012096                       # Cumulative packet size per connected requestor and responder (bytes)
system.l2bus.snoops                            252630                       # Total snoops (count)
system.l2bus.snoopTraffic                     2178496                       # Total snoop traffic (bytes)
system.l2bus.snoop_fanout::samples            6880113                       # Request fanout histogram
system.l2bus.snoop_fanout::mean              0.002577                       # Request fanout histogram
system.l2bus.snoop_fanout::stdev             0.050699                       # Request fanout histogram
system.l2bus.snoop_fanout::underflows               0      0.00%      0.00% # Request fanout histogram
system.l2bus.snoop_fanout::0                  6862383     99.74%     99.74% # Request fanout histogram
system.l2bus.snoop_fanout::1                    17730      0.26%    100.00% # Request fanout histogram
system.l2bus.snoop_fanout::2                        0      0.00%    100.00% # Request fanout histogram
system.l2bus.snoop_fanout::overflows                0      0.00%    100.00% # Request fanout histogram
system.l2bus.snoop_fanout::min_value                0                       # Request fanout histogram
system.l2bus.snoop_fanout::max_value                1                       # Request fanout histogram
system.l2bus.snoop_fanout::total              6880113                       # Request fanout histogram
system.l2bus.power_state.pwrStateResidencyTicks::UNDEFINED 1238443320000                       # Cumulative time (in ticks) in various power states
system.l2bus.reqLayer0.occupancy          19124098000                       # Layer occupancy (ticks)
system.l2bus.reqLayer0.utilization                1.5                       # Layer utilization (%)
system.l2bus.respLayer0.occupancy            56208000                       # Layer occupancy (ticks)
system.l2bus.respLayer0.utilization               0.0                       # Layer utilization (%)
system.l2bus.respLayer1.occupancy         19826241000                       # Layer occupancy (ticks)
system.l2bus.respLayer1.utilization               1.6                       # Layer utilization (%)
system.l2cache.demand_hits::.cpu.inst           11569                       # number of demand (read+write) hits
system.l2cache.demand_hits::.cpu.data         6360157                       # number of demand (read+write) hits
system.l2cache.demand_hits::total             6371726                       # number of demand (read+write) hits
system.l2cache.overall_hits::.cpu.inst          11569                       # number of overall hits
system.l2cache.overall_hits::.cpu.data        6360157                       # number of overall hits
system.l2cache.overall_hits::total            6371726                       # number of overall hits
system.l2cache.demand_misses::.cpu.inst          7167                       # number of demand (read+write) misses
system.l2cache.demand_misses::.cpu.data        248590                       # number of demand (read+write) misses
system.l2cache.demand_misses::total            255757                       # number of demand (read+write) misses
system.l2cache.overall_misses::.cpu.inst         7167                       # number of overall misses
system.l2cache.overall_misses::.cpu.data       248590                       # number of overall misses
system.l2cache.overall_misses::total           255757                       # number of overall misses
system.l2cache.demand_miss_latency::.cpu.inst    716750000                       # number of demand (read+write) miss cycles
system.l2cache.demand_miss_latency::.cpu.data  24038206000                       # number of demand (read+write) miss cycles
system.l2cache.demand_miss_latency::total  24754956000                       # number of demand (read+write) miss cycles
system.l2cache.overall_miss_latency::.cpu.inst    716750000                       # number of overall miss cycles
system.l2cache.overall_miss_latency::.cpu.data  24038206000                       # number of overall miss cycles
system.l2cache.overall_miss_latency::total  24754956000                       # number of overall miss cycles
system.l2cache.demand_accesses::.cpu.inst        18736                       # number of demand (read+write) accesses
system.l2cache.demand_accesses::.cpu.data      6608747                       # number of demand (read+write) accesses
system.l2cache.demand_accesses::total         6627483                       # number of demand (read+write) accesses
system.l2cache.overall_accesses::.cpu.inst        18736                       # number of overall (read+write) accesses
system.l2cache.overall_accesses::.cpu.data      6608747                       # number of overall (read+write) accesses
system.l2cache.overall_accesses::total        6627483                       # number of overall (read+write) accesses
system.l2cache.demand_miss_rate::.cpu.inst     0.382526                       # miss rate for demand accesses
system.l2cache.demand_miss_rate::.cpu.data     0.037615                       # miss rate for demand accesses
system.l2cache.demand_miss_rate::total       0.038590                       # miss rate for demand accesses
system.l2cache.overall_miss_rate::.cpu.inst     0.382526                       # miss rate for overall accesses
system.l2cache.overall_miss_rate::.cpu.data     0.037615                       # miss rate for overall accesses
system.l2cache.overall_miss_rate::total      0.038590                       # miss rate for overall accesses
system.l2cache.demand_avg_miss_latency::.cpu.inst 100006.976420                       # average overall miss latency
system.l2cache.demand_avg_miss_latency::.cpu.data 96698.201858                       # average overall miss latency
system.l2cache.demand_avg_miss_latency::total 96790.922634                       # average overall miss latency
system.l2cache.overall_avg_miss_latency::.cpu.inst 100006.976420                       # average overall miss latency
system.l2cache.overall_avg_miss_latency::.cpu.data 96698.201858                       # average overall miss latency
system.l2cache.overall_avg_miss_latency::total 96790.922634                       # average overall miss latency
system.l2cache.blocked_cycles::no_mshrs             0                       # number of cycles access was blocked
system.l2cache.blocked_cycles::no_targets            0                       # number of cycles access was blocked
system.l2cache.blocked::no_mshrs                    0                       # number of cycles access was blocked
system.l2cache.blocked::no_targets                  0                       # number of cycles access was blocked
system.l2cache.avg_blocked_cycles::no_mshrs          nan                       # average number of cycles each access was blocked
system.l2cache.avg_blocked_cycles::no_targets          nan                       # average number of cycles each access was blocked
system.l2cache.writebacks::.writebacks          34039                       # number of writebacks
system.l2cache.writebacks::total                34039                       # number of writebacks
system.l2cache.demand_mshr_misses::.cpu.inst         7167                       # number of demand (read+write) MSHR misses
system.l2cache.demand_mshr_misses::.cpu.data       248590                       # number of demand (read+write) MSHR misses
system.l2cache.demand_mshr_misses::total       255757                       # number of demand (read+write) MSHR misses
system.l2cache.overall_mshr_misses::.cpu.inst         7167                       # number of overall MSHR misses
system.l2cache.overall_mshr_misses::.cpu.data       248590                       # number of overall MSHR misses
system.l2cache.overall_mshr_misses::total       255757                       # number of overall MSHR misses
system.l2cache.demand_mshr_miss_latency::.cpu.inst    573410000                       # number of demand (read+write) MSHR miss cycles
system.l2cache.demand_mshr_miss_latency::.cpu.data  19066406000                       # number of demand (read+write) MSHR miss cycles
system.l2cache.demand_mshr_miss_latency::total  19639816000                       # number of demand (read+write) MSHR miss cycles
system.l2cache.overall_mshr_miss_latency::.cpu.inst    573410000                       # number of overall MSHR miss cycles
system.l2cache.overall_mshr_miss_latency::.cpu.data  19066406000                       # number of overall MSHR miss cycles
system.l2cache.overall_mshr_miss_latency::total  19639816000                       # number of overall MSHR miss cycles
system.l2cache.demand_mshr_miss_rate::.cpu.inst     0.382526                       # mshr miss rate for demand accesses
system.l2cache.demand_mshr_miss_rate::.cpu.data     0.037615                       # mshr miss rate for demand accesses
system.l2cache.demand_mshr_miss_rate::total     0.038590                       # mshr miss rate for demand accesses
system.l2cache.overall_mshr_miss_rate::.cpu.inst     0.382526                       # mshr miss rate for overall accesses
system.l2cache.overall_mshr_miss_rate::.cpu.data     0.037615                       # mshr miss rate for overall accesses
system.l2cache.overall_mshr_miss_rate::total     0.038590                       # mshr miss rate for overall accesses
system.l2cache.demand_avg_mshr_miss_latency::.cpu.inst 80006.976420                       # average overall mshr miss latency
system.l2cache.demand_avg_mshr_miss_latency::.cpu.data 76698.201858                       # average overall mshr miss latency
system.l2cache.demand_avg_mshr_miss_latency::total 76790.922634                       # average overall mshr miss latency
system.l2cache.overall_avg_mshr_miss_latency::.cpu.inst 80006.976420                       # average overall mshr miss latency
system.l2cache.overall_avg_mshr_miss_latency::.cpu.data 76698.201858                       # average overall mshr miss latency
system.l2cache.overall_avg_mshr_miss_latency::total 76790.922634                       # average overall mshr miss latency
system.l2cache.replacements                    250115                       # number of replacements
system.l2cache.WritebackDirty_hits::.writebacks      2935083                       # number of WritebackDirty hits
system.l2cache.WritebackDirty_hits::total      2935083                       # number of WritebackDirty hits
system.l2cache.WritebackDirty_misses::.writebacks          123                       # number of WritebackDirty misses
system.l2cache.WritebackDirty_misses::total          123                       # number of WritebackDirty misses
system.l2cache.WritebackDirty_accesses::.writebacks      2935206                       # number of WritebackDirty accesses(hits+misses)
system.l2cache.WritebackDirty_accesses::total      2935206                       # number of WritebackDirty accesses(hits+misses)
system.l2cache.WritebackDirty_miss_rate::.writebacks     0.000042                       # miss rate for WritebackDirty accesses
system.l2cache.WritebackDirty_miss_rate::total     0.000042                       # miss rate for WritebackDirty accesses
system.l2cache.WritebackDirty_mshr_misses::.writebacks          123                       # number of WritebackDirty MSHR misses
system.l2cache.WritebackDirty_mshr_misses::total          123                       # number of WritebackDirty MSHR misses
system.l2cache.WritebackDirty_mshr_miss_rate::.writebacks     0.000042                       # mshr miss rate for WritebackDirty accesses
system.l2cache.WritebackDirty_mshr_miss_rate::total     0.000042                       # mshr miss rate for WritebackDirty accesses
system.l2cache.CleanEvict_mshr_misses::.writebacks         4307                       # number of CleanEvict MSHR misses
system.l2cache.CleanEvict_mshr_misses::total         4307                       # number of CleanEvict MSHR misses
system.l2cache.CleanEvict_mshr_miss_rate::.writebacks          inf                       # mshr miss rate for CleanEvict accesses
system.l2cache.CleanEvict_mshr_miss_rate::total          inf                       # mshr miss rate for CleanEvict accesses
system.l2cache.ReadExReq_hits::.cpu.data        88849                       # number of ReadExReq hits
system.l2cache.ReadExReq_hits::total            88849                       # number of ReadExReq hits
system.l2cache.ReadExReq_misses::.cpu.data        29122                       # number of ReadExReq misses
system.l2cache.ReadExReq_misses::total          29122                       # number of ReadExReq misses
system.l2cache.ReadExReq_miss_latency::.cpu.data   2853064000                       # number of ReadExReq miss cycles
system.l2cache.ReadExReq_miss_latency::total   2853064000                       # number of ReadExReq miss cycles
system.l2cache.ReadExReq_accesses::.cpu.data       117971                       # number of ReadExReq accesses(hits+misses)
system.l2cache.ReadExReq_accesses::total       117971                       # number of ReadExReq accesses(hits+misses)
system.l2cache.ReadExReq_miss_rate::.cpu.data     0.246857                       # miss rate for ReadExReq accesses
system.l2cache.ReadExReq_miss_rate::total     0.246857                       # miss rate for ReadExReq accesses
system.l2cache.ReadExReq_avg_miss_latency::.cpu.data 97969.370236                       # average ReadExReq miss latency
system.l2cache.ReadExReq_avg_miss_latency::total 97969.370236                       # average ReadExReq miss latency
system.l2cache.ReadExReq_mshr_misses::.cpu.data        29122                       # number of ReadExReq MSHR misses
system.l2cache.ReadExReq_mshr_misses::total        29122                       # number of ReadExReq MSHR misses
system.l2cache.ReadExReq_mshr_miss_latency::.cpu.data   2270624000                       # number of ReadExReq MSHR miss cycles
system.l2cache.ReadExReq_mshr_miss_latency::total   2270624000                       # number of ReadExReq MSHR miss cycles
system.l2cache.ReadExReq_mshr_miss_rate::.cpu.data     0.246857                       # mshr miss rate for ReadExReq accesses
system.l2cache.ReadExReq_mshr_miss_rate::total     0.246857                       # mshr miss rate for ReadExReq accesses
system.l2cache.ReadExReq_avg_mshr_miss_latency::.cpu.data 77969.370236                       # average ReadExReq mshr miss latency
system.l2cache.ReadExReq_avg_mshr_miss_latency::total 77969.370236                       # average ReadExReq mshr miss latency
system.l2cache.ReadSharedReq_hits::.cpu.inst        11569                       # number of ReadSharedReq hits
system.l2cache.ReadSharedReq_hits::.cpu.data      6271308                       # number of ReadSharedReq hits
system.l2cache.ReadSharedReq_hits::total      6282877                       # number of ReadSharedReq hits
system.l2cache.ReadSharedReq_misses::.cpu.inst         7167                       # number of ReadSharedReq misses
system.l2cache.ReadSharedReq_misses::.cpu.data       219468                       # number of ReadSharedReq misses
system.l2cache.ReadSharedReq_misses::total       226635                       # number of ReadSharedReq misses
system.l2cache.ReadSharedReq_miss_latency::.cpu.inst    716750000                       # number of ReadSharedReq miss cycles
system.l2cache.ReadSharedReq_miss_latency::.cpu.data  21185142000                       # number of ReadSharedReq miss cycles
system.l2cache.ReadSharedReq_miss_latency::total  21901892000                       # number of ReadSharedReq miss cycles
system.l2cache.ReadSharedReq_accesses::.cpu.inst        18736                       # number of ReadSharedReq accesses(hits+misses)
system.l2cache.ReadSharedReq_accesses::.cpu.data      6490776                       # number of ReadSharedReq accesses(hits+misses)
system.l2cache.ReadSharedReq_accesses::total      6509512                       # number of ReadSharedReq accesses(hits+misses)
system.l2cache.ReadSharedReq_miss_rate::.cpu.inst     0.382526                       # miss rate for ReadSharedReq accesses
system.l2cache.ReadSharedReq_miss_rate::.cpu.data     0.033812                       # miss rate for ReadSharedReq accesses
system.l2cache.ReadSharedReq_miss_rate::total     0.034816                       # miss rate for ReadSharedReq accesses
system.l2cache.ReadSharedReq_avg_miss_latency::.cpu.inst 100006.976420                       # average ReadSharedReq miss latency
system.l2cache.ReadSharedReq_avg_miss_latency::.cpu.data 96529.525945                       # average ReadSharedReq miss latency
system.l2cache.ReadSharedReq_avg_miss_latency::total 96639.495224                       # average ReadSharedReq miss latency
system.l2cache.ReadSharedReq_mshr_misses::.cpu.inst         7167                       # number of ReadSharedReq MSHR misses
system.l2cache.ReadSharedReq_mshr_misses::.cpu.data       219468                       # number of ReadSharedReq MSHR misses
system.l2cache.ReadSharedReq_mshr_misses::total       226635                       # number of ReadSharedReq MSHR misses
system.l2cache.ReadSharedReq_mshr_miss_latency::.cpu.inst    573410000                       # number of ReadSharedReq MSHR miss cycles
system.l2cache.ReadSharedReq_mshr_miss_latency::.cpu.data  16795782000                       # number of ReadSharedReq MSHR miss cycles
system.l2cache.ReadSharedReq_mshr_miss_latency::total  17369192000                       # number of ReadSharedReq MSHR miss cycles
system.l2cache.ReadSharedReq_mshr_miss_rate::.cpu.inst     0.382526                       # mshr miss rate for ReadSharedReq accesses
system.l2cache.ReadSharedReq_mshr_miss_rate::.cpu.data     0.033812                       # mshr miss rate for ReadSharedReq accesses
system.l2cache.ReadSharedReq_mshr_miss_rate::total     0.034816                       # mshr miss rate for ReadSharedReq accesses
system.l2cache.ReadSharedReq_avg_mshr_miss_latency::.cpu.inst 80006.976420                       # average ReadSharedReq mshr miss latency
system.l2cache.ReadSharedReq_avg_mshr_miss_latency::.cpu.data 76529.525945                       # average ReadSharedReq mshr miss latency
system.l2cache.ReadSharedReq_avg_mshr_miss_latency::total 76639.495224                       # average ReadSharedReq mshr miss latency
system.l2cache.power_state.pwrStateResidencyTicks::UNDEFINED 1238443320000                       # Cumulative time (in ticks) in various power states
system.l2cache.replacement_policy.totalBypasses         2638                       # Total number of cache bypasses
system.l2cache.replacement_policy.effectiveBypasses          646                       # Bypasses that correctly skipped non-reused blocks
system.l2cache.replacement_policy.ineffectiveBypasses         1864                       # Bypasses that incorrectly skipped requested blocks
system.l2cache.replacement_policy.virtualEffectiveBypasses         3190                       # Virtual bypasses correctly predicting non-reused blocks
system.l2cache.replacement_policy.virtualIneffectiveBypasses         9803                       # Virtual bypasses incorrectly predicting requested blocks
system.l2cache.tags.tagsinuse            16332.584373                       # Cycle average of tags in use
system.l2cache.tags.total_refs               13246741                       # Total number of references to valid blocks.
system.l2cache.tags.sampled_refs               266499                       # Sample count of references to valid blocks.
system.l2cache.tags.avg_refs                49.706532                       # Average number of references to valid blocks.
system.l2cache.tags.warmup_cycle                86000                       # Cycle when the warmup percentage was hit.
system.l2cache.tags.occ_blocks::.writebacks   147.527661                       # Average occupied blocks per requestor
system.l2cache.tags.occ_blocks::.cpu.inst   228.018200                       # Average occupied blocks per requestor
system.l2cache.tags.occ_blocks::.cpu.data 15957.038512                       # Average occupied blocks per requestor
system.l2cache.tags.occ_percent::.writebacks     0.009004                       # Average percentage of cache occupancy
system.l2cache.tags.occ_percent::.cpu.inst     0.013917                       # Average percentage of cache occupancy
system.l2cache.tags.occ_percent::.cpu.data     0.973940                       # Average percentage of cache occupancy
system.l2cache.tags.occ_percent::total       0.996862                       # Average percentage of cache occupancy
system.l2cache.tags.occ_task_id_blocks::1024        16384                       # Occupied blocks per task id
system.l2cache.tags.age_task_id_blocks_1024::0           57                       # Occupied blocks per task id
system.l2cache.tags.age_task_id_blocks_1024::1          140                       # Occupied blocks per task id
system.l2cache.tags.age_task_id_blocks_1024::2         1570                       # Occupied blocks per task id
system.l2cache.tags.age_task_id_blocks_1024::3          576                       # Occupied blocks per task id
system.l2cache.tags.age_task_id_blocks_1024::4        14041                       # Occupied blocks per task id
system.l2cache.tags.occ_task_id_percent::1024            1                       # Percentage of cache occupancy per task id
system.l2cache.tags.tag_accesses            106295987                       # Number of tag accesses
system.l2cache.tags.data_accesses           106295987                       # Number of data accesses
system.l2cache.tags.power_state.pwrStateResidencyTicks::UNDEFINED 1238443320000                       # Cumulative time (in ticks) in various power states
system.mem_ctrl.avgPriority_.writebacks::samples     27686.00                       # Average QoS priority value for accepted requests
system.mem_ctrl.avgPriority_.cpu.inst::samples      7167.00                       # Average QoS priority value for accepted requests
system.mem_ctrl.avgPriority_.cpu.data::samples    240971.00                       # Average QoS priority value for accepted requests
system.mem_ctrl.priorityMinLatency       0.000000018750                       # per QoS priority minimum request to response latency (s)
system.mem_ctrl.priorityMaxLatency       0.129005646500                       # per QoS priority maximum request to response latency (s)
system.mem_ctrl.numReadWriteTurnArounds          1571                       # Number of turnarounds from READ to WRITE
system.mem_ctrl.numWriteReadTurnArounds          1571                       # Number of turnarounds from WRITE to READ
system.mem_ctrl.numStayReadState               848125                       # Number of times bus staying in READ state
system.mem_ctrl.numStayWriteState               26146                       # Number of times bus staying in WRITE state
system.mem_ctrl.readReqs                       255757                       # Number of read requests accepted
system.mem_ctrl.writeReqs                       34162                       # Number of write requests accepted
system.mem_ctrl.readBursts                     255757                       # Number of controller read bursts, including those serviced by the write queue
system.mem_ctrl.writeBursts                     34162                       # Number of controller write bursts, including those merged in the write queue
system.mem_ctrl.servicedByWrQ                    7619                       # Number of controller read bursts serviced by the write queue
system.mem_ctrl.mergedWrBursts                   6476                       # Number of controller write bursts merged with an existing one
system.mem_ctrl.neitherReadNorWriteReqs             0                       # Number of requests that are neither read nor write
system.mem_ctrl.avgRdQLen                        1.00                       # Average read queue length when enqueuing
system.mem_ctrl.avgWrQLen                       25.37                       # Average write queue length when enqueuing
system.mem_ctrl.numRdRetry                          0                       # Number of times read queue was full causing retry
system.mem_ctrl.numWrRetry                          0                       # Number of times write queue was full causing retry
system.mem_ctrl.readPktSize::0                      0                       # Read request sizes (log2)
system.mem_ctrl.readPktSize::1                      0                       # Read request sizes (log2)
system.mem_ctrl.readPktSize::2                      0                       # Read request sizes (log2)
system.mem_ctrl.readPktSize::3                      0                       # Read request sizes (log2)
system.mem_ctrl.readPktSize::4                      0                       # Read request sizes (log2)
system.mem_ctrl.readPktSize::5                      0                       # Read request sizes (log2)
system.mem_ctrl.readPktSize::6                 255757                       # Read request sizes (log2)
system.mem_ctrl.writePktSize::0                     0                       # Write request sizes (log2)
system.mem_ctrl.writePktSize::1                     0                       # Write request sizes (log2)
system.mem_ctrl.writePktSize::2                     0                       # Write request sizes (log2)
system.mem_ctrl.writePktSize::3                     0                       # Write request sizes (log2)
system.mem_ctrl.writePktSize::4                     0                       # Write request sizes (log2)
system.mem_ctrl.writePktSize::5                     0                       # Write request sizes (log2)
system.mem_ctrl.writePktSize::6                 34162                       # Write request sizes (log2)
system.mem_ctrl.rdQLenPdf::0                   248058                       # What read queue length does an incoming req see
system.mem_ctrl.rdQLenPdf::1                       80                       # What read queue length does an incoming req see
system.mem_ctrl.rdQLenPdf::2                        0                       # What read queue length does an incoming req see
system.mem_ctrl.rdQLenPdf::3                        0                       # What read queue length does an incoming req see
system.mem_ctrl.rdQLenPdf::4                        0                       # What read queue length does an incoming req see
system.mem_ctrl.rdQLenPdf::5                        0                       # What read queue length does an incoming req see
system.mem_ctrl.rdQLenPdf::6                        0                       # What read queue length does an incoming req see
system.mem_ctrl.rdQLenPdf::7                        0                       # What read queue length does an incoming req see
system.mem_ctrl.rdQLenPdf::8                        0                       # What read queue length does an incoming req see
system.mem_ctrl.rdQLenPdf::9                        0                       # What read queue length does an incoming req see
system.mem_ctrl.rdQLenPdf::10                       0                       # What read queue length does an incoming req see
system.mem_ctrl.rdQLenPdf::11                       0                       # What read queue length does an incoming req see
system.mem_ctrl.rdQLenPdf::12                       0                       # What read queue length does an incoming req see
system.mem_ctrl.rdQLenPdf::13                       0                       # What read queue length does an incoming req see
system.mem_ctrl.rdQLenPdf::14                       0                       # What read queue length does an incoming req see
system.mem_ctrl.rdQLenPdf::15                       0                       # What read queue length does an incoming req see
system.mem_ctrl.rdQLenPdf::16                       0                       # What read queue length does an incoming req see
system.mem_ctrl.rdQLenPdf::17                       0                       # What read queue length does an incoming req see
system.mem_ctrl.rdQLenPdf::18                       0                       # What read queue length does an incoming req see
system.mem_ctrl.rdQLenPdf::19                       0                       # What read queue length does an incoming req see
system.mem_ctrl.rdQLenPdf::20                       0                       # What read queue length does an incoming req see
system.mem_ctrl.rdQLenPdf::21                       0                       # What read queue length does an incoming req see
system.mem_ctrl.rdQLenPdf::22                       0                       # What read queue length does an incoming req see
system.mem_ctrl.rdQLenPdf::23                       0                       # What read queue length does an incoming req see
system.mem_ctrl.rdQLenPdf::24                       0                       # What read queue length does an incoming req see
system.mem_ctrl.rdQLenPdf::25                       0                       # What read queue length does an incoming req see
system.mem_ctrl.rdQLenPdf::26                       0                       # What read queue length does an incoming req see
system.mem_ctrl.rdQLenPdf::27                       0                       # What read queue length does an incoming req see
system.mem_ctrl.rdQLenPdf::28                       0                       # What read queue length does an incoming req see
system.mem_ctrl.rdQLenPdf::29                       0                       # What read queue length does an incoming req see
system.mem_ctrl.rdQLenPdf::30                       0                       # What read queue length does an incoming req see
system.mem_ctrl.rdQLenPdf::31                       0                       # What read queue length does an incoming req see
system.mem_ctrl.wrQLenPdf::0                        1                       # What write queue length does an incoming req see
system.mem_ctrl.wrQLenPdf::1                        1                       # What write queue length does an incoming req see
system.mem_ctrl.wrQLenPdf::2                        1                       # What write queue length does an incoming req see
system.mem_ctrl.wrQLenPdf::3                        1                       # What write queue length does an incoming req see
system.mem_ctrl.wrQLenPdf::4                        1                       # What write queue length does an incoming req see
system.mem_ctrl.wrQLenPdf::5                        1                       # What write queue length does an incoming req see
system.mem_ctrl.wrQLenPdf::6                        1                       # What write queue length does an incoming req see
system.mem_ctrl.wrQLenPdf::7                        1                       # What write queue length does an incoming req see
system.mem_ctrl.wrQLenPdf::8                        1                       # What write queue length does an incoming req see
system.mem_ctrl.wrQLenPdf::9                        1                       # What write queue length does an incoming req see
system.mem_ctrl.wrQLenPdf::10                       1                       # What write queue length does an incoming req see
system.mem_ctrl.wrQLenPdf::11                       1                       # What write queue length does an incoming req see
system.mem_ctrl.wrQLenPdf::12                       1                       # What write queue length does an incoming req see
system.mem_ctrl.wrQLenPdf::13                       1                       # What write queue length does an incoming req see
system.mem_ctrl.wrQLenPdf::14                       1                       # What write queue length does an incoming req see
system.mem_ctrl.wrQLenPdf::15                    1255                       # What write queue length does an incoming req see
system.mem_ctrl.wrQLenPdf::16                    1274                       # What write queue length does an incoming req see
system.mem_ctrl.wrQLenPdf::17                    1572                       # What write queue length does an incoming req see
system.mem_ctrl.wrQLenPdf::18                    1572                       # What write queue length does an incoming req see
system.mem_ctrl.wrQLenPdf::19                    1572                       # What write queue length does an incoming req see
system.mem_ctrl.wrQLenPdf::20                    1571                       # What write queue length does an incoming req see
system.mem_ctrl.wrQLenPdf::21                    1571                       # What write queue length does an incoming req see
system.mem_ctrl.wrQLenPdf::22                    1571                       # What write queue length does an incoming req see
system.mem_ctrl.wrQLenPdf::23                    1572                       # What write queue length does an incoming req see
system.mem_ctrl.wrQLenPdf::24                    1573                       # What write queue length does an incoming req see
system.mem_ctrl.wrQLenPdf::25                    1571                       # What write queue length does an incoming req see
system.mem_ctrl.wrQLenPdf::26                    1571                       # What write queue length does an incoming req see
system.mem_ctrl.wrQLenPdf::27                    1571                       # What write queue length does an incoming req see
system.mem_ctrl.wrQLenPdf::28                    1571                       # What write queue length does an incoming req see
system.mem_ctrl.wrQLenPdf::29                    1571                       # What write queue length does an incoming req see
system.mem_ctrl.wrQLenPdf::30                    1571                       # What write queue length does an incoming req see
system.mem_ctrl.wrQLenPdf::31                    1571                       # What write queue length does an incoming req see
system.mem_ctrl.wrQLenPdf::32                    1571                       # What write queue length does an incoming req see
system.mem_ctrl.wrQLenPdf::33                       0                       # What write queue length does an incoming req see
system.mem_ctrl.wrQLenPdf::34                       0                       # What write queue length does an incoming req see
system.mem_ctrl.wrQLenPdf::35                       0                       # What write queue length does an incoming req see
system.mem_ctrl.wrQLenPdf::36                       0                       # What write queue length does an incoming req see
system.mem_ctrl.wrQLenPdf::37                       0                       # What write queue length does an incoming req see
system.mem_ctrl.wrQLenPdf::38                       0                       # What write queue length does an incoming req see
system.mem_ctrl.wrQLenPdf::39                       0                       # What write queue length does an incoming req see
system.mem_ctrl.wrQLenPdf::40                       0                       # What write queue length does an incoming req see
system.mem_ctrl.wrQLenPdf::41                       0                       # What write queue length does an incoming req see
system.mem_ctrl.wrQLenPdf::42                       0                       # What write queue length does an incoming req see
system.mem_ctrl.wrQLenPdf::43                       0                       # What write queue length does an incoming req see
system.mem_ctrl.wrQLenPdf::44                       0                       # What write queue length does an incoming req see
system.mem_ctrl.wrQLenPdf::45                       0                       # What write queue length does an incoming req see
system.mem_ctrl.wrQLenPdf::46                       0                       # What write queue length does an incoming req see
system.mem_ctrl.wrQLenPdf::47                       0                       # What write queue length does an incoming req see
system.mem_ctrl.wrQLenPdf::48                       0                       # What write queue length does an incoming req see
system.mem_ctrl.wrQLenPdf::49                       0                       # What write queue length does an incoming req see
system.mem_ctrl.wrQLenPdf::50                       0                       # What write queue length does an incoming req see
system.mem_ctrl.wrQLenPdf::51                       0                       # What write queue length does an incoming req see
system.mem_ctrl.wrQLenPdf::52                       0                       # What write queue length does an incoming req see
system.mem_ctrl.wrQLenPdf::53                       0                       # What write queue length does an incoming req see
system.mem_ctrl.wrQLenPdf::54                       0                       # What write queue length does an incoming req see
system.mem_ctrl.wrQLenPdf::55                       0                       # What write queue length does an incoming req see
system.mem_ctrl.wrQLenPdf::56                       0                       # What write queue length does an incoming req see
system.mem_ctrl.wrQLenPdf::57                       0                       # What write queue length does an incoming req see
system.mem_ctrl.wrQLenPdf::58                       0                       # What write queue length does an incoming req see
system.mem_ctrl.wrQLenPdf::59                       0                       # What write queue length does an incoming req see
system.mem_ctrl.wrQLenPdf::60                       0                       # What write queue length does an incoming req see
system.mem_ctrl.wrQLenPdf::61                       0                       # What write queue length does an incoming req see
system.mem_ctrl.wrQLenPdf::62                       0                       # What write queue length does an incoming req see
system.mem_ctrl.wrQLenPdf::63                       0                       # What write queue length does an incoming req see
system.mem_ctrl.rdPerTurnAround::samples         1571                       # Reads before turning the bus around for writes
system.mem_ctrl.rdPerTurnAround::mean      157.926798                       # Reads before turning the bus around for writes
system.mem_ctrl.rdPerTurnAround::gmean      27.426166                       # Reads before turning the bus around for writes
system.mem_ctrl.rdPerTurnAround::stdev     962.704504                       # Reads before turning the bus around for writes
system.mem_ctrl.rdPerTurnAround::0-1023          1538     97.90%     97.90% # Reads before turning the bus around for writes
system.mem_ctrl.rdPerTurnAround::1024-2047            1      0.06%     97.96% # Reads before turning the bus around for writes
system.mem_ctrl.rdPerTurnAround::2048-3071            9      0.57%     98.54% # Reads before turning the bus around for writes
system.mem_ctrl.rdPerTurnAround::3072-4095            6      0.38%     98.92% # Reads before turning the bus around for writes
system.mem_ctrl.rdPerTurnAround::4096-5119            1      0.06%     98.98% # Reads before turning the bus around for writes
system.mem_ctrl.rdPerTurnAround::5120-6143            1      0.06%     99.05% # Reads before turning the bus around for writes
system.mem_ctrl.rdPerTurnAround::8192-9215           14      0.89%     99.94% # Reads before turning the bus around for writes
system.mem_ctrl.rdPerTurnAround::16384-17407            1      0.06%    100.00% # Reads before turning the bus around for writes
system.mem_ctrl.rdPerTurnAround::total           1571                       # Reads before turning the bus around for writes
system.mem_ctrl.wrPerTurnAround::samples         1571                       # Writes before turning the bus around for reads
system.mem_ctrl.wrPerTurnAround::mean       17.610439                       # Writes before turning the bus around for reads
system.mem_ctrl.wrPerTurnAround::gmean      17.592028                       # Writes before turning the bus around for reads
system.mem_ctrl.wrPerTurnAround::stdev       0.786668                       # Writes before turning the bus around for reads
system.mem_ctrl.wrPerTurnAround::16               297     18.91%     18.91% # Writes before turning the bus around for reads
system.mem_ctrl.wrPerTurnAround::17                20      1.27%     20.18% # Writes before turning the bus around for reads
system.mem_ctrl.wrPerTurnAround::18              1252     79.69%     99.87% # Writes before turning the bus around for reads
system.mem_ctrl.wrPerTurnAround::19                 2      0.13%    100.00% # Writes before turning the bus around for reads
system.mem_ctrl.wrPerTurnAround::total           1571                       # Writes before turning the bus around for reads
system.mem_ctrl.bytesReadWrQ                   487616                       # Total number of bytes read from write queue
system.mem_ctrl.bytesReadSys                 16368448                       # Total read bytes from the system interface side
system.mem_ctrl.bytesWrittenSys               2186368                       # Total written bytes from the system interface side
system.mem_ctrl.avgRdBWSys                      13.22                       # Average system read bandwidth in MiByte/s
[...]
system.mem_ctrl.requestorReadRate::.cpu.data 12452846.045469403267                       # Per-requestor bytes read from memory rate (Bytes/sec)
system.mem_ctrl.requestorWriteRate::.writebacks 1429717.429458136205                       # Per-requestor bytes write to memory rate (Bytes/sec)
system.mem_ctrl.requestorReadAccesses::.cpu.inst         7167                       # Per-requestor read serviced memory accesses
system.mem_ctrl.requestorReadAccesses::.cpu.data       248590                       # Per-requestor read serviced memory accesses
system.mem_ctrl.requestorWriteAccesses::.writebacks        34162                       # Per-requestor write serviced memory accesses
system.mem_ctrl.requestorReadTotalLat::.cpu.inst    205433250                       # Per-requestor read total memory access latency
system.mem_ctrl.requestorReadTotalLat::.cpu.data   6391828750                       # Per-requestor read total memory access latency
system.mem_ctrl.requestorWriteTotalLat::.writebacks 31120673461000                       # Per-requestor write total memory access latency
system.mem_ctrl.requestorReadAvgLat::.cpu.inst     28663.77                       # Per-requestor read average memory access latency
system.mem_ctrl.requestorReadAvgLat::.cpu.data     25712.33                       # Per-requestor read average memory access latency
system.mem_ctrl.requestorWriteAvgLat::.writebacks 910973404.98                       # Per-requestor write average memory access latency
system.mem_ctrl.dram.bytes_read::.cpu.inst       458688                       # Number of bytes read from this memory
system.mem_ctrl.dram.bytes_read::.cpu.data     15909760                       # Number of bytes read from this memory
system.mem_ctrl.dram.bytes_read::total       16368448                       # Number of bytes read from this memory
system.mem_ctrl.dram.bytes_inst_read::.cpu.inst       458688                       # Number of instructions bytes read from this memory
system.mem_ctrl.dram.bytes_inst_read::total       458688                       # Number of instructions bytes read from this memory
system.mem_ctrl.dram.bytes_written::.writebacks      2186368                       # Number of bytes written to this memory
system.mem_ctrl.dram.bytes_written::total      2186368                       # Number of bytes written to this memory
system.mem_ctrl.dram.num_reads::.cpu.inst         7167                       # Number of read requests responded to by this memory
system.mem_ctrl.dram.num_reads::.cpu.data       248590                       # Number of read requests responded to by this memory
system.mem_ctrl.dram.num_reads::total          255757                       # Number of read requests responded to by this memory
system.mem_ctrl.dram.num_writes::.writebacks        34162                       # Number of write requests responded to by this memory
system.mem_ctrl.dram.num_writes::total          34162                       # Number of write requests responded to by this memory
system.mem_ctrl.dram.bw_read::.cpu.inst        370375                       # Total read bandwidth from this memory (bytes/s)
system.mem_ctrl.dram.bw_read::.cpu.data      12846579                       # Total read bandwidth from this memory (bytes/s)
system.mem_ctrl.dram.bw_read::total          13216954                       # Total read bandwidth from this memory (bytes/s)
system.mem_ctrl.dram.bw_inst_read::.cpu.inst       370375                       # Instruction read bandwidth from this memory (bytes/s)
system.mem_ctrl.dram.bw_inst_read::total       370375                       # Instruction read bandwidth from this memory (bytes/s)
system.mem_ctrl.dram.bw_write::.writebacks      1765416                       # Write bandwidth from this memory (bytes/s)
system.mem_ctrl.dram.bw_write::total          1765416                       # Write bandwidth from this memory (bytes/s)
system.mem_ctrl.dram.bw_total::.writebacks      1765416                       # Total bandwidth to/from this memory (bytes/s)
system.mem_ctrl.dram.bw_total::.cpu.inst       370375                       # Total bandwidth to/from this memory (bytes/s)
system.mem_ctrl.dram.bw_total::.cpu.data     12846579                       # Total bandwidth to/from this memory (bytes/s)
system.mem_ctrl.dram.bw_total::total         14982370                       # Total bandwidth to/from this memory (bytes/s)
system.mem_ctrl.dram.readBursts                248138                       # Number of DRAM read bursts
system.mem_ctrl.dram.writeBursts                27666                       # Number of DRAM write bursts
system.mem_ctrl.dram.perBankRdBursts::0          9478                       # Per bank write bursts
system.mem_ctrl.dram.perBankRdBursts::1          5137                       # Per bank write bursts
system.mem_ctrl.dram.perBankRdBursts::2          3592                       # Per bank write bursts
system.mem_ctrl.dram.perBankRdBursts::3          3389                       # Per bank write bursts
system.mem_ctrl.dram.perBankRdBursts::4          3942                       # Per bank write bursts
system.mem_ctrl.dram.perBankRdBursts::5          6710                       # Per bank write bursts
system.mem_ctrl.dram.perBankRdBursts::6         78132                       # Per bank write bursts
system.mem_ctrl.dram.perBankRdBursts::7         85030                       # Per bank write bursts
system.mem_ctrl.dram.perBankRdBursts::8          8182                       # Per bank write bursts
system.mem_ctrl.dram.perBankRdBursts::9          3206                       # Per bank write bursts
system.mem_ctrl.dram.perBankRdBursts::10         4543                       # Per bank write bursts
system.mem_ctrl.dram.perBankRdBursts::11         2397                       # Per bank write bursts
system.mem_ctrl.dram.perBankRdBursts::12         3248                       # Per bank write bursts
system.mem_ctrl.dram.perBankRdBursts::13         4694                       # Per bank write bursts
system.mem_ctrl.dram.perBankRdBursts::14         8883                       # Per bank write bursts
system.mem_ctrl.dram.perBankRdBursts::15        17575                       # Per bank write bursts
system.mem_ctrl.dram.perBankWrBursts::0          2306                       # Per bank write bursts
system.mem_ctrl.dram.perBankWrBursts::1          1836                       # Per bank write bursts
system.mem_ctrl.dram.perBankWrBursts::2          1948                       # Per bank write bursts
system.mem_ctrl.dram.perBankWrBursts::3          1988                       # Per bank write bursts
system.mem_ctrl.dram.perBankWrBursts::4          1348                       # Per bank write bursts
system.mem_ctrl.dram.perBankWrBursts::5          1483                       # Per bank write bursts
system.mem_ctrl.dram.perBankWrBursts::6          2419                       # Per bank write bursts
system.mem_ctrl.dram.perBankWrBursts::7          2643                       # Per bank write bursts
system.mem_ctrl.dram.perBankWrBursts::8          1775                       # Per bank write bursts
system.mem_ctrl.dram.perBankWrBursts::9           784                       # Per bank write bursts
system.mem_ctrl.dram.perBankWrBursts::10          724                       # Per bank write bursts
system.mem_ctrl.dram.perBankWrBursts::11          912                       # Per bank write bursts
system.mem_ctrl.dram.perBankWrBursts::12         1178                       # Per bank write bursts
system.mem_ctrl.dram.perBankWrBursts::13         1989                       # Per bank write bursts
system.mem_ctrl.dram.perBankWrBursts::14         1896                       # Per bank write bursts
system.mem_ctrl.dram.perBankWrBursts::15         2437                       # Per bank write bursts
system.mem_ctrl.dram.totQLat               1944674500                       # Total ticks spent queuing
system.mem_ctrl.dram.totBusLat             1240690000                       # Total ticks spent in databus transfers
system.mem_ctrl.dram.totMemAccLat          6597262000                       # Total ticks spent from burst creation until serviced by the DRAM
system.mem_ctrl.dram.avgQLat                  7837.07                       # Average queueing delay per DRAM burst
system.mem_ctrl.dram.avgBusLat                5000.00                       # Average bus latency per DRAM burst
system.mem_ctrl.dram.avgMemAccLat            26587.07                       # Average memory access latency per DRAM burst
system.mem_ctrl.dram.readRowHits               195120                       # Number of row buffer hits during reads
system.mem_ctrl.dram.writeRowHits               20593                       # Number of row buffer hits during writes
system.mem_ctrl.dram.readRowHitRate             78.63                       # Row buffer hit rate for reads
system.mem_ctrl.dram.writeRowHitRate            74.43                       # Row buffer hit rate for writes
system.mem_ctrl.dram.bytesPerActivate::samples        60088                       # Bytes accessed per row activation
system.mem_ctrl.dram.bytesPerActivate::mean   293.751564                       # Bytes accessed per row activation
system.mem_ctrl.dram.bytesPerActivate::gmean   176.769321                       # Bytes accessed per row activation
system.mem_ctrl.dram.bytesPerActivate::stdev   298.381159                       # Bytes accessed per row activation
system.mem_ctrl.dram.bytesPerActivate::0-127        24204     40.28%     40.28% # Bytes accessed per row activation
system.mem_ctrl.dram.bytesPerActivate::128-255        11531     19.19%     59.47% # Bytes accessed per row activation
system.mem_ctrl.dram.bytesPerActivate::256-383         5802      9.66%     69.13% # Bytes accessed per row activation
system.mem_ctrl.dram.bytesPerActivate::384-511         4927      8.20%     77.33% # Bytes accessed per row activation
system.mem_ctrl.dram.bytesPerActivate::512-639         3005      5.00%     82.33% # Bytes accessed per row activation
system.mem_ctrl.dram.bytesPerActivate::640-767         2674      4.45%     86.78% # Bytes accessed per row activation
system.mem_ctrl.dram.bytesPerActivate::768-895         3239      5.39%     92.17% # Bytes accessed per row activation
system.mem_ctrl.dram.bytesPerActivate::896-1023         1316      2.19%     94.36% # Bytes accessed per row activation
system.mem_ctrl.dram.bytesPerActivate::1024-1151         3390      5.64%    100.00% # Bytes accessed per row activation
system.mem_ctrl.dram.bytesPerActivate::total        60088                       # Bytes accessed per row activation
system.mem_ctrl.dram.bytesRead               15880832                       # Total number of bytes read from DRAM
system.mem_ctrl.dram.bytesWritten             1770624                       # Total number of bytes written to DRAM
system.mem_ctrl.dram.avgRdBW                12.823221                       # Average DRAM read bandwidth in MiBytes/s
system.mem_ctrl.dram.avgWrBW                 1.429717                       # Average DRAM write bandwidth in MiBytes/s
system.mem_ctrl.dram.peakBW                  12800.00                       # Theoretical peak bandwidth in MiByte/s
system.mem_ctrl.dram.busUtil                     0.11                       # Data bus utilization in percentage
system.mem_ctrl.dram.busUtilRead                 0.10                       # Data bus utilization in percentage for reads
system.mem_ctrl.dram.busUtilWrite                0.01                       # Data bus utilization in percentage for writes
system.mem_ctrl.dram.pageHitRate                78.21                       # Row buffer hit rate, read and write combined
system.mem_ctrl.dram.power_state.pwrStateResidencyTicks::UNDEFINED 1238443320000                       # Cumulative time (in ticks) in various power states
system.mem_ctrl.dram.rank0.actEnergy        297245340                       # Energy for activate commands per rank (pJ)
system.mem_ctrl.dram.rank0.preEnergy        157982055                       # Energy for precharge commands per rank (pJ)
system.mem_ctrl.dram.rank0.readEnergy      1395227400                       # Energy for read commands per rank (pJ)
system.mem_ctrl.dram.rank0.writeEnergy       83368620                       # Energy for write commands per rank (pJ)
system.mem_ctrl.dram.rank0.refreshEnergy 97761565200.000015                       # Energy for refresh commands per rank (pJ)
system.mem_ctrl.dram.rank0.actBackEnergy  91732896990                       # Energy for active background per rank (pJ)
system.mem_ctrl.dram.rank0.preBackEnergy 398313479520                       # Energy for precharge background per rank (pJ)
system.mem_ctrl.dram.rank0.actPowerDownEnergy            0                       # Energy for active power-down per rank (pJ)
system.mem_ctrl.dram.rank0.prePowerDownEnergy            0                       # Energy for precharge power-down per rank (pJ)
system.mem_ctrl.dram.rank0.selfRefreshEnergy            0                       # Energy for self refresh per rank (pJ)
system.mem_ctrl.dram.rank0.totalEnergy   589741765125                       # Total energy per rank (pJ)
system.mem_ctrl.dram.rank0.averagePower    476.196008                       # Core power per rank (mW)
system.mem_ctrl.dram.rank0.totalIdleTime            0                       # Total Idle time Per DRAM Rank
system.mem_ctrl.dram.rank0.pwrStateTime::IDLE 1034626175750                       # Time in different power states
system.mem_ctrl.dram.rank0.pwrStateTime::REF  41354300000                       # Time in different power states
system.mem_ctrl.dram.rank0.pwrStateTime::SREF            0                       # Time in different power states
system.mem_ctrl.dram.rank0.pwrStateTime::PRE_PDN            0                       # Time in different power states
system.mem_ctrl.dram.rank0.pwrStateTime::ACT 162462844250                       # Time in different power states
system.mem_ctrl.dram.rank0.pwrStateTime::ACT_PDN            0                       # Time in different power states
system.mem_ctrl.dram.rank1.actEnergy        131804400                       # Energy for activate commands per rank (pJ)
system.mem_ctrl.dram.rank1.preEnergy         70051905                       # Energy for precharge commands per rank (pJ)
system.mem_ctrl.dram.rank1.readEnergy       376477920                       # Energy for read commands per rank (pJ)
system.mem_ctrl.dram.rank1.writeEnergy       61047900                       # Energy for write commands per rank (pJ)
system.mem_ctrl.dram.rank1.refreshEnergy 97761565200.000015                       # Energy for refresh commands per rank (pJ)
system.mem_ctrl.dram.rank1.actBackEnergy  42777843930                       # Energy for active background per rank (pJ)
system.mem_ctrl.dram.rank1.preBackEnergy 439538787360                       # Energy for precharge background per rank (pJ)
system.mem_ctrl.dram.rank1.actPowerDownEnergy            0                       # Energy for active power-down per rank (pJ)
system.mem_ctrl.dram.rank1.prePowerDownEnergy            0                       # Energy for precharge power-down per rank (pJ)
system.mem_ctrl.dram.rank1.selfRefreshEnergy            0                       # Energy for self refresh per rank (pJ)
system.mem_ctrl.dram.rank1.totalEnergy   580717578615                       # Total energy per rank (pJ)
system.mem_ctrl.dram.rank1.averagePower    468.909291                       # Core power per rank (mW)
system.mem_ctrl.dram.rank1.totalIdleTime            0                       # Total Idle time Per DRAM Rank
system.mem_ctrl.dram.rank1.pwrStateTime::IDLE 1142261588500                       # Time in different power states
system.mem_ctrl.dram.rank1.pwrStateTime::REF  41354300000                       # Time in different power states
system.mem_ctrl.dram.rank1.pwrStateTime::SREF            0                       # Time in different power states
system.mem_ctrl.dram.rank1.pwrStateTime::PRE_PDN            0                       # Time in different power states
system.mem_ctrl.dram.rank1.pwrStateTime::ACT  54827431500                       # Time in different power states
system.mem_ctrl.dram.rank1.pwrStateTime::ACT_PDN            0                       # Time in different power states
system.mem_ctrl.power_state.pwrStateResidencyTicks::UNDEFINED 1238443320000                       # Cumulative time (in ticks) in various power states
system.membus.trans_dist::ReadResp             226635                       # Transaction distribution
system.membus.trans_dist::WritebackDirty        34162                       # Transaction distribution
system.membus.trans_dist::CleanEvict           205168                       # Transaction distribution
system.membus.trans_dist::ReadExReq             29122                       # Transaction distribution
system.membus.trans_dist::ReadExResp            29122                       # Transaction distribution
system.membus.trans_dist::ReadSharedReq        226635                       # Transaction distribution
system.membus.pkt_count_system.l2cache.mem_side_port::system.mem_ctrl.port       750844                       # Packet count per connected requestor and responder (bytes)
system.membus.pkt_count_system.l2cache.mem_side_port::total       750844                       # Packet count per connected requestor and responder (bytes)
system.membus.pkt_count::total                 750844                       # Packet count per connected requestor and responder (bytes)
system.membus.pkt_size_system.l2cache.mem_side_port::system.mem_ctrl.port     18554816                       # Cumulative packet size per connected requestor and responder (bytes)
system.membus.pkt_size_system.l2cache.mem_side_port::total     18554816                       # Cumulative packet size per connected requestor and responder (bytes)
system.membus.pkt_size::total                18554816                       # Cumulative packet size per connected requestor and responder (bytes)
system.membus.snoops                                0                       # Total snoops (count)
system.membus.snoopTraffic                          0                       # Total snoop traffic (bytes)
system.membus.snoop_fanout::samples            255757                       # Request fanout histogram
system.membus.snoop_fanout::mean                    0                       # Request fanout histogram
system.membus.snoop_fanout::stdev                   0                       # Request fanout histogram
system.membus.snoop_fanout::underflows              0      0.00%      0.00% # Request fanout histogram
system.membus.snoop_fanout::0                  255757    100.00%    100.00% # Request fanout histogram
system.membus.snoop_fanout::1                       0      0.00%    100.00% # Request fanout histogram
system.membus.snoop_fanout::overflows               0      0.00%    100.00% # Request fanout histogram
system.membus.snoop_fanout::min_value               0                       # Request fanout histogram
system.membus.snoop_fanout::max_value               0                       # Request fanout histogram
system.membus.snoop_fanout::total              255757                       # Request fanout histogram
system.membus.power_state.pwrStateResidencyTicks::UNDEFINED 1238443320000                       # Cumulative time (in ticks) in various power states
system.membus.reqLayer2.occupancy           631735000                       # Layer occupancy (ticks)
system.membus.reqLayer2.utilization               0.1                       # Layer utilization (%)
system.membus.respLayer0.occupancy         1353888500                       # Layer occupancy (ticks)
system.membus.respLayer0.utilization              0.1                       # Layer utilization (%)

---------- End Simulation Statistics   ----------
