
---------- Begin Simulation Statistics ----------
final_tick                                 8211147000                       # Number of ticks from beginning of simulation (restored from checkpoints and never reset)
host_inst_rate                                  21354                       # Simulator instruction rate (inst/s)
host_mem_usage                                 642268                       # Number of bytes of host memory used
host_op_rate                                    33107                       # Simulator op (including micro ops) rate (op/s)
host_seconds                                    34.18                       # Real time elapsed on the host
host_tick_rate                              240235073                       # Simulator tick rate (ticks/s)
sim_freq                                 1000000000000                       # Frequency of simulated ticks
sim_insts                                      729871                       # Number of instructions simulated
sim_ops                                       1131598                       # Number of ops (including micro ops) simulated
sim_seconds                                  0.008211                       # Number of seconds simulated
sim_ticks                                  8211147000                       # Number of ticks simulated
system.cpu.cc_regfile_reads                    667561                       # number of cc regfile reads
system.cpu.cc_regfile_writes                  1056518                       # number of cc regfile writes
system.cpu.committedInsts                      729871                       # Number of Instructions Simulated
system.cpu.committedOps                       1131598                       # Number of Ops (including micro ops) Simulated
system.cpu.cpi                              11.250136                       # CPI: Cycles Per Instruction
system.cpu.cpi_total                        11.250136                       # CPI: Total CPI of All Threads
system.cpu.fp_regfile_reads                      1737                       # number of floating regfile reads
system.cpu.fp_regfile_writes                      805                       # number of floating regfile writes
system.cpu.idleCycles                           21412                       # Total number of cycles that the CPU has spent unscheduled due to idling
system.cpu.iew.branchMispredicts                  679                       # Number of branch mispredicts detected at execute
system.cpu.iew.exec_branches                    68128                       # Number of branches executed
system.cpu.iew.exec_nop                             0                       # number of nop insts executed
system.cpu.iew.exec_rate                     0.139003                       # Inst execution rate
system.cpu.iew.exec_refs                        70730                       # number of memory reference insts executed
system.cpu.iew.exec_stores                       2148                       # Number of stores executed
system.cpu.iew.exec_swp                             0                       # number of swp insts executed
system.cpu.iew.iewBlockCycles                 6930249                       # Number of cycles IEW is blocking
system.cpu.iew.iewDispLoadInsts                 68971                       # Number of dispatched load instructions
system.cpu.iew.iewDispNonSpecInsts                  0                       # Number of dispatched non-speculative instructions
system.cpu.iew.iewDispSquashedInsts                81                       # Number of squashed instructions skipped by dispatch
system.cpu.iew.iewDispStoreInsts                 2611                       # Number of dispatched store instructions
system.cpu.iew.iewDispatchedInsts             1145672                       # Number of instructions dispatched to IQ
system.cpu.iew.iewExecLoadInsts                 68582                       # Number of load instructions executed
system.cpu.iew.iewExecSquashedInsts               824                       # Number of squashed instructions skipped in execute
system.cpu.iew.iewExecutedInsts               1141377                       # Number of executed instructions
system.cpu.iew.iewIQFullEvents                     21                       # Number of times the IQ has become full, causing a stall
system.cpu.iew.iewIdleCycles                        0                       # Number of cycles IEW is idle
system.cpu.iew.iewLSQFullEvents                   658                       # Number of times the LSQ has become full, causing a stall
system.cpu.iew.iewSquashCycles                    598                       # Number of cycles IEW is squashing
system.cpu.iew.iewUnblockCycles                 63067                       # Number of cycles IEW is unblocking
system.cpu.iew.memOrderViolationEvents             17                       # Number of memory order violations
system.cpu.iew.predictedNotTakenIncorrect          624                       # Number of branches that were predicted not taken incorrectly
system.cpu.iew.predictedTakenIncorrect             55                       # Number of branches that were predicted taken incorrectly
system.cpu.iew.wb_consumers                   1907101                       # num instructions consuming a value
system.cpu.iew.wb_count                       1140535                       # cumulative count of insts written-back
system.cpu.iew.wb_fanout                     0.479483                       # average fanout of values written-back
system.cpu.iew.wb_producers                    914423                       # num instructions producing a value
system.cpu.iew.wb_rate                       0.138901                       # insts written-back per cycle
system.cpu.iew.wb_sent                        1140851                       # cumulative count of insts sent to commit
system.cpu.int_regfile_reads                  1740106                       # number of integer regfile reads
system.cpu.int_regfile_writes                 1069151                       # number of integer regfile writes
system.cpu.ipc                               0.088888                       # IPC: Instructions Per Cycle
system.cpu.ipc_total                         0.088888                       # IPC: Total IPC of All Threads
system.cpu.iq.FU_type_0::No_OpClass               678      0.06%      0.06% # Type of FU issued
system.cpu.iq.FU_type_0::IntAlu               1069889     93.67%     93.73% # Type of FU issued
system.cpu.iq.FU_type_0::IntMult                    6      0.00%     93.73% # Type of FU issued
system.cpu.iq.FU_type_0::IntDiv                    30      0.00%     93.73% # Type of FU issued
system.cpu.iq.FU_type_0::FloatAdd                 136      0.01%     93.74% # Type of FU issued
system.cpu.iq.FU_type_0::FloatCmp                   0      0.00%     93.74% # Type of FU issued
system.cpu.iq.FU_type_0::FloatCvt                   0      0.00%     93.74% # Type of FU issued
system.cpu.iq.FU_type_0::FloatMult                  0      0.00%     93.74% # Type of FU issued
system.cpu.iq.FU_type_0::FloatMultAcc               0      0.00%     93.74% # Type of FU issued
system.cpu.iq.FU_type_0::FloatDiv                   0      0.00%     93.74% # Type of FU issued
system.cpu.iq.FU_type_0::FloatMisc                  0      0.00%     93.74% # Type of FU issued
system.cpu.iq.FU_type_0::FloatSqrt                  0      0.00%     93.74% # Type of FU issued
system.cpu.iq.FU_type_0::SimdAdd                    0      0.00%     93.74% # Type of FU issued
system.cpu.iq.FU_type_0::SimdAddAcc                 0      0.00%     93.74% # Type of FU issued
system.cpu.iq.FU_type_0::SimdAlu                  164      0.01%     93.76% # Type of FU issued
system.cpu.iq.FU_type_0::SimdCmp                   12      0.00%     93.76% # Type of FU issued
system.cpu.iq.FU_type_0::SimdCvt                   78      0.01%     93.77% # Type of FU issued
system.cpu.iq.FU_type_0::SimdMisc                 248      0.02%     93.79% # Type of FU issued
system.cpu.iq.FU_type_0::SimdMult                   0      0.00%     93.79% # Type of FU issued
system.cpu.iq.FU_type_0::SimdMultAcc                0      0.00%     93.79% # Type of FU issued
system.cpu.iq.FU_type_0::SimdShift                  0      0.00%     93.79% # Type of FU issued
system.cpu.iq.FU_type_0::SimdShiftAcc               0      0.00%     93.79% # Type of FU issued
system.cpu.iq.FU_type_0::SimdDiv                    0      0.00%     93.79% # Type of FU issued
system.cpu.iq.FU_type_0::SimdSqrt                   0      0.00%     93.79% # Type of FU issued
system.cpu.iq.FU_type_0::SimdFloatAdd               0      0.00%     93.79% # Type of FU issued
system.cpu.iq.FU_type_0::SimdFloatAlu               0      0.00%     93.79% # Type of FU issued
system.cpu.iq.FU_type_0::SimdFloatCmp               0      0.00%     93.79% # Type of FU issued
system.cpu.iq.FU_type_0::SimdFloatCvt               0      0.00%     93.79% # Type of FU issued
system.cpu.iq.FU_type_0::SimdFloatDiv               0      0.00%     93.79% # Type of FU issued
system.cpu.iq.FU_type_0::SimdFloatMisc              0      0.00%     93.79% # Type of FU issued
system.cpu.iq.FU_type_0::SimdFloatMult              0      0.00%     93.79% # Type of FU issued
system.cpu.iq.FU_type_0::SimdFloatMultAcc            0      0.00%     93.79% # Type of FU issued
system.cpu.iq.FU_type_0::SimdFloatSqrt              0      0.00%     93.79% # Type of FU issued
system.cpu.iq.FU_type_0::SimdReduceAdd              0      0.00%     93.79% # Type of FU issued
system.cpu.iq.FU_type_0::SimdReduceAlu              0      0.00%     93.79% # Type of FU issued
system.cpu.iq.FU_type_0::SimdReduceCmp              0      0.00%     93.79% # Type of FU issued
system.cpu.iq.FU_type_0::SimdFloatReduceAdd            0      0.00%     93.79% # Type of FU issued
system.cpu.iq.FU_type_0::SimdFloatReduceCmp            0      0.00%     93.79% # Type of FU issued
system.cpu.iq.FU_type_0::SimdAes                    0      0.00%     93.79% # Type of FU issued
system.cpu.iq.FU_type_0::SimdAesMix                 0      0.00%     93.79% # Type of FU issued
system.cpu.iq.FU_type_0::SimdSha1Hash               0      0.00%     93.79% # Type of FU issued
system.cpu.iq.FU_type_0::SimdSha1Hash2              0      0.00%     93.79% # Type of FU issued
system.cpu.iq.FU_type_0::SimdSha256Hash             0      0.00%     93.79% # Type of FU issued
system.cpu.iq.FU_type_0::SimdSha256Hash2            0      0.00%     93.79% # Type of FU issued
system.cpu.iq.FU_type_0::SimdShaSigma2              0      0.00%     93.79% # Type of FU issued
system.cpu.iq.FU_type_0::SimdShaSigma3              0      0.00%     93.79% # Type of FU issued
system.cpu.iq.FU_type_0::SimdPredAlu                0      0.00%     93.79% # Type of FU issued
system.cpu.iq.FU_type_0::MemRead                68633      6.01%     99.80% # Type of FU issued
system.cpu.iq.FU_type_0::MemWrite                1684      0.15%     99.94% # Type of FU issued
system.cpu.iq.FU_type_0::FloatMemRead             105      0.01%     99.95% # Type of FU issued
system.cpu.iq.FU_type_0::FloatMemWrite            544      0.05%    100.00% # Type of FU issued
system.cpu.iq.FU_type_0::IprAccess                  0      0.00%    100.00% # Type of FU issued
system.cpu.iq.FU_type_0::InstPrefetch               0      0.00%    100.00% # Type of FU issued
system.cpu.iq.FU_type_0::total                1142207                       # Type of FU issued
system.cpu.iq.fp_alu_accesses                    1507                       # Number of floating point alu accesses
system.cpu.iq.fp_inst_queue_reads                2965                       # Number of floating instruction queue reads
system.cpu.iq.fp_inst_queue_wakeup_accesses         1413                       # Number of floating instruction queue wakeup accesses
system.cpu.iq.fp_inst_queue_writes               1737                       # Number of floating instruction queue writes
system.cpu.iq.fu_busy_cnt                         333                       # FU busy when requested
system.cpu.iq.fu_busy_rate                   0.000292                       # FU busy rate (busy events/executed inst)
system.cpu.iq.fu_full::No_OpClass                   0      0.00%      0.00% # attempts to use FU when none available
system.cpu.iq.fu_full::IntAlu                     232     69.67%     69.67% # attempts to use FU when none available
system.cpu.iq.fu_full::IntMult                      0      0.00%     69.67% # attempts to use FU when none available
system.cpu.iq.fu_full::IntDiv                       0      0.00%     69.67% # attempts to use FU when none available
system.cpu.iq.fu_full::FloatAdd                     0      0.00%     69.67% # attempts to use FU when none available
system.cpu.iq.fu_full::FloatCmp                     0      0.00%     69.67% # attempts to use FU when none available
system.cpu.iq.fu_full::FloatCvt                     0      0.00%     69.67% # attempts to use FU when none available
system.cpu.iq.fu_full::FloatMult                    0      0.00%     69.67% # attempts to use FU when none available
system.cpu.iq.fu_full::FloatMultAcc                 0      0.00%     69.67% # attempts to use FU when none available
system.cpu.iq.fu_full::FloatDiv                     0      0.00%     69.67% # attempts to use FU when none available
system.cpu.iq.fu_full::FloatMisc                    0      0.00%     69.67% # attempts to use FU when none available
system.cpu.iq.fu_full::FloatSqrt                    0      0.00%     69.67% # attempts to use FU when none available
system.cpu.iq.fu_full::SimdAdd                      0      0.00%     69.67% # attempts to use FU when none available
system.cpu.iq.fu_full::SimdAddAcc                   0      0.00%     69.67% # attempts to use FU when none available
system.cpu.iq.fu_full::SimdAlu                     11      3.30%     72.97% # attempts to use FU when none available
system.cpu.iq.fu_full::SimdCmp                      0      0.00%     72.97% # attempts to use FU when none available
system.cpu.iq.fu_full::SimdCvt                      5      1.50%     74.47% # attempts to use FU when none available
system.cpu.iq.fu_full::SimdMisc                     5      1.50%     75.98% # attempts to use FU when none available
system.cpu.iq.fu_full::SimdMult                     0      0.00%     75.98% # attempts to use FU when none available
system.cpu.iq.fu_full::SimdMultAcc                  0      0.00%     75.98% # attempts to use FU when none available
system.cpu.iq.fu_full::SimdShift                    0      0.00%     75.98% # attempts to use FU when none available
system.cpu.iq.fu_full::SimdShiftAcc                 0      0.00%     75.98% # attempts to use FU when none available
system.cpu.iq.fu_full::SimdDiv                      0      0.00%     75.98% # attempts to use FU when none available
system.cpu.iq.fu_full::SimdSqrt                     0      0.00%     75.98% # attempts to use FU when none available
system.cpu.iq.fu_full::SimdFloatAdd                 0      0.00%     75.98% # attempts to use FU when none available
system.cpu.iq.fu_full::SimdFloatAlu                 0      0.00%     75.98% # attempts to use FU when none available
system.cpu.iq.fu_full::SimdFloatCmp                 0      0.00%     75.98% # attempts to use FU when none available
system.cpu.iq.fu_full::SimdFloatCvt                 0      0.00%     75.98% # attempts to use FU when none available
system.cpu.iq.fu_full::SimdFloatDiv                 0      0.00%     75.98% # attempts to use FU when none available
system.cpu.iq.fu_full::SimdFloatMisc                0      0.00%     75.98% # attempts to use FU when none available
system.cpu.iq.fu_full::SimdFloatMult                0      0.00%     75.98% # attempts to use FU when none available
system.cpu.iq.fu_full::SimdFloatMultAcc             0      0.00%     75.98% # attempts to use FU when none available
system.cpu.iq.fu_full::SimdFloatSqrt                0      0.00%     75.98% # attempts to use FU when none available
system.cpu.iq.fu_full::SimdReduceAdd                0      0.00%     75.98% # attempts to use FU when none available
system.cpu.iq.fu_full::SimdReduceAlu                0      0.00%     75.98% # attempts to use FU when none available
system.cpu.iq.fu_full::SimdReduceCmp                0      0.00%     75.98% # attempts to use FU when none available
system.cpu.iq.fu_full::SimdFloatReduceAdd            0      0.00%     75.98% # attempts to use FU when none available
system.cpu.iq.fu_full::SimdFloatReduceCmp            0      0.00%     75.98% # attempts to use FU when none available
system.cpu.iq.fu_full::SimdAes                      0      0.00%     75.98% # attempts to use FU when none available
system.cpu.iq.fu_full::SimdAesMix                   0      0.00%     75.98% # attempts to use FU when none available
system.cpu.iq.fu_full::SimdSha1Hash                 0      0.00%     75.98% # attempts to use FU when none available
system.cpu.iq.fu_full::SimdSha1Hash2                0      0.00%     75.98% # attempts to use FU when none available
system.cpu.iq.fu_full::SimdSha256Hash               0      0.00%     75.98% # attempts to use FU when none available
system.cpu.iq.fu_full::SimdSha256Hash2              0      0.00%     75.98% # attempts to use FU when none available
system.cpu.iq.fu_full::SimdShaSigma2                0      0.00%     75.98% # attempts to use FU when none available
system.cpu.iq.fu_full::SimdShaSigma3                0      0.00%     75.98% # attempts to use FU when none available
system.cpu.iq.fu_full::SimdPredAlu                  0      0.00%     75.98% # attempts to use FU when none available
system.cpu.iq.fu_full::MemRead                     24      7.21%     83.18% # attempts to use FU when none available
system.cpu.iq.fu_full::MemWrite                    17      5.11%     88.29% # attempts to use FU when none available
system.cpu.iq.fu_full::FloatMemRead                 6      1.80%     90.09% # attempts to use FU when none available
system.cpu.iq.fu_full::FloatMemWrite               33      9.91%    100.00% # attempts to use FU when none available
system.cpu.iq.fu_full::IprAccess                    0      0.00%    100.00% # attempts to use FU when none available
system.cpu.iq.fu_full::InstPrefetch                 0      0.00%    100.00% # attempts to use FU when none available
system.cpu.iq.int_alu_accesses                1140355                       # Number of integer alu accesses
system.cpu.iq.int_inst_queue_reads           10471572                       # Number of integer instruction queue reads
system.cpu.iq.int_inst_queue_wakeup_accesses      1139122                       # Number of integer instruction queue wakeup accesses
system.cpu.iq.int_inst_queue_writes           1158012                       # Number of integer instruction queue writes
system.cpu.iq.iqInstsAdded                    1145672                       # Number of instructions added to the IQ (excludes non-spec)
system.cpu.iq.iqInstsIssued                   1142207                       # Number of instructions issued
system.cpu.iq.iqSquashedInstsExamined           14060                       # Number of squashed instructions iterated over during squash; mainly for profiling
system.cpu.iq.iqSquashedInstsIssued                60                       # Number of squashed instructions issued
system.cpu.iq.iqSquashedOperandsExamined        16952                       # Number of squashed operands that are examined and possibly removed from graph
system.cpu.iq.issued_per_cycle::samples       8189736                       # Number of insts issued each cycle
system.cpu.iq.issued_per_cycle::mean         0.139468                       # Number of insts issued each cycle
system.cpu.iq.issued_per_cycle::stdev        0.445779                       # Number of insts issued each cycle
system.cpu.iq.issued_per_cycle::underflows            0      0.00%      0.00% # Number of insts issued each cycle
system.cpu.iq.issued_per_cycle::0             7335820     89.57%     89.57% # Number of insts issued each cycle
system.cpu.iq.issued_per_cycle::1              582342      7.11%     96.68% # Number of insts issued each cycle
system.cpu.iq.issued_per_cycle::2              263559      3.22%     99.90% # Number of insts issued each cycle
system.cpu.iq.issued_per_cycle::3                4287      0.05%     99.95% # Number of insts issued each cycle
system.cpu.iq.issued_per_cycle::4                1192      0.01%     99.97% # Number of insts issued each cycle
system.cpu.iq.issued_per_cycle::5                1020      0.01%     99.98% # Number of insts issued each cycle
system.cpu.iq.issued_per_cycle::6                 826      0.01%     99.99% # Number of insts issued each cycle
system.cpu.iq.issued_per_cycle::7                 458      0.01%    100.00% # Number of insts issued each cycle
system.cpu.iq.issued_per_cycle::8                 232      0.00%    100.00% # Number of insts issued each cycle
system.cpu.iq.issued_per_cycle::overflows            0      0.00%    100.00% # Number of insts issued each cycle
system.cpu.iq.issued_per_cycle::min_value            0                       # Number of insts issued each cycle
system.cpu.iq.issued_per_cycle::max_value            8                       # Number of insts issued each cycle
system.cpu.iq.issued_per_cycle::total         8189736                       # Number of insts issued each cycle
system.cpu.iq.rate                           0.139104                       # Inst issue rate
system.cpu.iq.vec_alu_accesses                      0                       # Number of vector alu accesses
system.cpu.iq.vec_inst_queue_reads                  0                       # Number of vector instruction queue reads
system.cpu.iq.vec_inst_queue_wakeup_accesses            0                       # Number of vector instruction queue wakeup accesses
system.cpu.iq.vec_inst_queue_writes                 0                       # Number of vector instruction queue writes
system.cpu.memDep0.conflictingLoads                29                       # Number of conflicting loads.
system.cpu.memDep0.conflictingStores               14                       # Number of conflicting stores.
system.cpu.memDep0.insertedLoads                68971                       # Number of loads inserted to the mem dependence unit.
system.cpu.memDep0.insertedStores                2611                       # Number of stores inserted to the mem dependence unit.
system.cpu.misc_regfile_reads                  208166                       # number of misc regfile reads
system.cpu.numCycles                          8211148                       # number of cpu cycles simulated
system.cpu.numWorkItemsCompleted                    0                       # number of work items this cpu completed
system.cpu.numWorkItemsStarted                      0                       # number of work items this cpu started
system.cpu.timesIdled                             312                       # Number of times that the entire CPU went into an idle state and unscheduled itself
system.cpu.workload.numSyscalls                    10                       # Number of system calls
system.l2bus.snoop_filter.hit_multi_requests            2                       # Number of requests hitting in the snoop filter with multiple (>1) holders of the requested data.
system.l2bus.snoop_filter.hit_multi_snoops            1                       # Number of snoops hitting in the snoop filter with multiple (>1) holders of the requested data.
system.l2bus.snoop_filter.hit_single_requests        61888                       # Number of requests hitting in the snoop filter with a single holder of the requested data.
system.l2bus.snoop_filter.hit_single_snoops        51707                       # Number of snoops hitting in the snoop filter with a single holder of the requested data.
system.l2bus.snoop_filter.tot_requests         125035                       # Total number of requests made to the snoop filter.
system.l2bus.snoop_filter.tot_snoops            51708                       # Total number of snoops made to the snoop filter.
system.membus.snoop_filter.hit_multi_requests            0                       # Number of requests hitting in the snoop filter with multiple (>1) holders of the requested data.
system.membus.snoop_filter.hit_multi_snoops            0                       # Number of snoops hitting in the snoop filter with multiple (>1) holders of the requested data.
system.membus.snoop_filter.hit_single_requests        61546                       # Number of requests hitting in the snoop filter with a single holder of the requested data.
system.membus.snoop_filter.hit_single_snoops            0                       # Number of snoops hitting in the snoop filter with a single holder of the requested data.
system.membus.snoop_filter.tot_requests        124435                       # Total number of requests made to the snoop filter.
system.membus.snoop_filter.tot_snoops               0                       # Total number of snoops made to the snoop filter.
system.clk_domain.clock                          1000                       # Clock period in ticks
system.clk_domain.voltage_domain.voltage            1                       # Voltage in Volts
system.cpu.branchPred.lookups                   69965                       # Number of BP lookups
system.cpu.branchPred.condPredicted             68789                       # Number of conditional branches predicted
system.cpu.branchPred.condIncorrect               720                       # Number of conditional branches incorrect
system.cpu.branchPred.BTBLookups                67601                       # Number of BTB lookups
system.cpu.branchPred.BTBHits                   66875                       # Number of BTB hits
system.cpu.branchPred.BTBHitPct             98.926051                       # BTB Hit Percentage
system.cpu.branchPred.RASUsed                     294                       # Number of times the RAS was used to get a target.
system.cpu.branchPred.RASIncorrect                  3                       # Number of incorrect RAS predictions.
system.cpu.branchPred.indirectLookups             289                       # Number of indirect predictor lookups.
system.cpu.branchPred.indirectHits                 10                       # Number of indirect target hits.
system.cpu.branchPred.indirectMisses              279                       # Number of indirect misses.
system.cpu.branchPred.indirectMispredicted           84                       # Number of mispredicted indirect branches.
system.cpu.commit.commitSquashedInsts           13957                       # The number of squashed insts skipped by commit
system.cpu.commit.branchMispredicts               571                       # The number of times a branch was mispredicted
system.cpu.commit.numCommittedDist::samples      8187514                       # Number of insts commited each cycle
system.cpu.commit.numCommittedDist::mean     0.138210                       # Number of insts commited each cycle
system.cpu.commit.numCommittedDist::stdev     0.550625                       # Number of insts commited each cycle
system.cpu.commit.numCommittedDist::underflows            0      0.00%      0.00% # Number of insts commited each cycle
system.cpu.commit.numCommittedDist::0         7526586     91.93%     91.93% # Number of insts commited each cycle
system.cpu.commit.numCommittedDist::1          394997      4.82%     96.75% # Number of insts commited each cycle
system.cpu.commit.numCommittedDist::2          131949      1.61%     98.36% # Number of insts commited each cycle
system.cpu.commit.numCommittedDist::3           66611      0.81%     99.18% # Number of insts commited each cycle
system.cpu.commit.numCommittedDist::4           66181      0.81%     99.99% # Number of insts commited each cycle
system.cpu.commit.numCommittedDist::5             270      0.00%     99.99% # Number of insts commited each cycle
system.cpu.commit.numCommittedDist::6             199      0.00%     99.99% # Number of insts commited each cycle
system.cpu.commit.numCommittedDist::7             166      0.00%     99.99% # Number of insts commited each cycle
system.cpu.commit.numCommittedDist::8             555      0.01%    100.00% # Number of insts commited each cycle
system.cpu.commit.numCommittedDist::overflows            0      0.00%    100.00% # Number of insts commited each cycle
system.cpu.commit.numCommittedDist::min_value            0                       # Number of insts commited each cycle
system.cpu.commit.numCommittedDist::max_value            8                       # Number of insts commited each cycle
system.cpu.commit.numCommittedDist::total      8187514                       # Number of insts commited each cycle
system.cpu.commit.instsCommitted               729871                       # Number of instructions committed
system.cpu.commit.opsCommitted                1131598                       # Number of ops (including micro ops) committed
system.cpu.commit.memRefs                       68827                       # Number of memory references committed
system.cpu.commit.loads                         67200                       # Number of loads committed
system.cpu.commit.amos                              0                       # Number of atomic instructions committed
system.cpu.commit.membars                           0                       # Number of memory barriers committed
system.cpu.commit.branches                      67416                       # Number of branches committed
system.cpu.commit.vector                            0                       # Number of committed Vector instructions.
system.cpu.commit.floating                       1267                       # Number of committed floating point instructions.
system.cpu.commit.integer                     1130784                       # Number of committed integer instructions.
system.cpu.commit.functionCalls                   147                       # Number of function calls committed.
system.cpu.commit.committedInstType_0::No_OpClass          286      0.03%      0.03% # Class of committed instruction
system.cpu.commit.committedInstType_0::IntAlu      1061895     93.84%     93.87% # Class of committed instruction
system.cpu.commit.committedInstType_0::IntMult            5      0.00%     93.87% # Class of committed instruction
system.cpu.commit.committedInstType_0::IntDiv           21      0.00%     93.87% # Class of committed instruction
system.cpu.commit.committedInstType_0::FloatAdd          135      0.01%     93.88% # Class of committed instruction
system.cpu.commit.committedInstType_0::FloatCmp            0      0.00%     93.88% # Class of committed instruction
system.cpu.commit.committedInstType_0::FloatCvt            0      0.00%     93.88% # Class of committed instruction
system.cpu.commit.committedInstType_0::FloatMult            0      0.00%     93.88% # Class of committed instruction
system.cpu.commit.committedInstType_0::FloatMultAcc            0      0.00%     93.88% # Class of committed instruction
system.cpu.commit.committedInstType_0::FloatDiv            0      0.00%     93.88% # Class of committed instruction
system.cpu.commit.committedInstType_0::FloatMisc            0      0.00%     93.88% # Class of committed instruction
system.cpu.commit.committedInstType_0::FloatSqrt            0      0.00%     93.88% # Class of committed instruction
system.cpu.commit.committedInstType_0::SimdAdd            0      0.00%     93.88% # Class of committed instruction
system.cpu.commit.committedInstType_0::SimdAddAcc            0      0.00%     93.88% # Class of committed instruction
system.cpu.commit.committedInstType_0::SimdAlu          100      0.01%     93.89% # Class of committed instruction
system.cpu.commit.committedInstType_0::SimdCmp           12      0.00%     93.89% # Class of committed instruction
system.cpu.commit.committedInstType_0::SimdCvt           74      0.01%     93.90% # Class of committed instruction
system.cpu.commit.committedInstType_0::SimdMisc          243      0.02%     93.92% # Class of committed instruction
system.cpu.commit.committedInstType_0::SimdMult            0      0.00%     93.92% # Class of committed instruction
system.cpu.commit.committedInstType_0::SimdMultAcc            0      0.00%     93.92% # Class of committed instruction
system.cpu.commit.committedInstType_0::SimdShift            0      0.00%     93.92% # Class of committed instruction
system.cpu.commit.committedInstType_0::SimdShiftAcc            0      0.00%     93.92% # Class of committed instruction
system.cpu.commit.committedInstType_0::SimdDiv            0      0.00%     93.92% # Class of committed instruction
system.cpu.commit.committedInstType_0::SimdSqrt            0      0.00%     93.92% # Class of committed instruction
system.cpu.commit.committedInstType_0::SimdFloatAdd            0      0.00%     93.92% # Class of committed instruction
system.cpu.commit.committedInstType_0::SimdFloatAlu            0      0.00%     93.92% # Class of committed instruction
system.cpu.commit.committedInstType_0::SimdFloatCmp            0      0.00%     93.92% # Class of committed instruction
system.cpu.commit.committedInstType_0::SimdFloatCvt            0      0.00%     93.92% # Class of committed instruction
system.cpu.commit.committedInstType_0::SimdFloatDiv            0      0.00%     93.92% # Class of committed instruction
system.cpu.commit.committedInstType_0::SimdFloatMisc            0      0.00%     93.92% # Class of committed instruction
system.cpu.commit.committedInstType_0::SimdFloatMult            0      0.00%     93.92% # Class of committed instruction
system.cpu.commit.committedInstType_0::SimdFloatMultAcc            0      0.00%     93.92% # Class of committed instruction
system.cpu.commit.committedInstType_0::SimdFloatSqrt            0      0.00%     93.92% # Class of committed instruction
system.cpu.commit.committedInstType_0::SimdReduceAdd            0      0.00%     93.92% # Class of committed instruction
system.cpu.commit.committedInstType_0::SimdReduceAlu            0      0.00%     93.92% # Class of committed instruction
system.cpu.commit.committedInstType_0::SimdReduceCmp            0      0.00%     93.92% # Class of committed instruction
system.cpu.commit.committedInstType_0::SimdFloatReduceAdd            0      0.00%     93.92% # Class of committed instruction
system.cpu.commit.committedInstType_0::SimdFloatReduceCmp            0      0.00%     93.92% # Class of committed instruction
system.cpu.commit.committedInstType_0::SimdAes            0      0.00%     93.92% # Class of committed instruction
system.cpu.commit.committedInstType_0::SimdAesMix            0      0.00%     93.92% # Class of committed instruction
system.cpu.commit.committedInstType_0::SimdSha1Hash            0      0.00%     93.92% # Class of committed instruction
system.cpu.commit.committedInstType_0::SimdSha1Hash2            0      0.00%     93.92% # Class of committed instruction
system.cpu.commit.committedInstType_0::SimdSha256Hash            0      0.00%     93.92% # Class of committed instruction
system.cpu.commit.committedInstType_0::SimdSha256Hash2            0      0.00%     93.92% # Class of committed instruction
system.cpu.commit.committedInstType_0::SimdShaSigma2            0      0.00%     93.92% # Class of committed instruction
system.cpu.commit.committedInstType_0::SimdShaSigma3            0      0.00%     93.92% # Class of committed instruction
system.cpu.commit.committedInstType_0::SimdPredAlu            0      0.00%     93.92% # Class of committed instruction
system.cpu.commit.committedInstType_0::MemRead        67122      5.93%     99.85% # Class of committed instruction
system.cpu.commit.committedInstType_0::MemWrite         1161      0.10%     99.95% # Class of committed instruction
system.cpu.commit.committedInstType_0::FloatMemRead           78      0.01%     99.96% # Class of committed instruction
system.cpu.commit.committedInstType_0::FloatMemWrite          466      0.04%    100.00% # Class of committed instruction
system.cpu.commit.committedInstType_0::IprAccess            0      0.00%    100.00% # Class of committed instruction
system.cpu.commit.committedInstType_0::InstPrefetch            0      0.00%    100.00% # Class of committed instruction
system.cpu.commit.committedInstType_0::total      1131598                       # Class of committed instruction
system.cpu.commit.commitEligibleSamples           555                       # number cycles where commit BW limit reached
system.cpu.dcache.demand_hits::.cpu.data         6951                       # number of demand (read+write) hits
system.cpu.dcache.demand_hits::total             6951                       # number of demand (read+write) hits
system.cpu.dcache.overall_hits::.cpu.data         6951                       # number of overall hits
system.cpu.dcache.overall_hits::total            6951                       # number of overall hits
system.cpu.dcache.demand_misses::.cpu.data        62877                       # number of demand (read+write) misses
system.cpu.dcache.demand_misses::total          62877                       # number of demand (read+write) misses
system.cpu.dcache.overall_misses::.cpu.data        62877                       # number of overall misses
system.cpu.dcache.overall_misses::total         62877                       # number of overall misses
system.cpu.dcache.demand_miss_latency::.cpu.data   7542901999                       # number of demand (read+write) miss cycles
system.cpu.dcache.demand_miss_latency::total   7542901999                       # number of demand (read+write) miss cycles
system.cpu.dcache.overall_miss_latency::.cpu.data   7542901999                       # number of overall miss cycles
system.cpu.dcache.overall_miss_latency::total   7542901999                       # number of overall miss cycles
system.cpu.dcache.demand_accesses::.cpu.data        69828                       # number of demand (read+write) accesses
system.cpu.dcache.demand_accesses::total        69828                       # number of demand (read+write) accesses
system.cpu.dcache.overall_accesses::.cpu.data        69828                       # number of overall (read+write) accesses
system.cpu.dcache.overall_accesses::total        69828                       # number of overall (read+write) accesses
system.cpu.dcache.demand_miss_rate::.cpu.data     0.900455                       # miss rate for demand accesses
system.cpu.dcache.demand_miss_rate::total     0.900455                       # miss rate for demand accesses
system.cpu.dcache.overall_miss_rate::.cpu.data     0.900455                       # miss rate for overall accesses
system.cpu.dcache.overall_miss_rate::total     0.900455                       # miss rate for overall accesses
system.cpu.dcache.demand_avg_miss_latency::.cpu.data 119962.816276                       # average overall miss latency
system.cpu.dcache.demand_avg_miss_latency::total 119962.816276                       # average overall miss latency
system.cpu.dcache.overall_avg_miss_latency::.cpu.data 119962.816276                       # average overall miss latency
system.cpu.dcache.overall_avg_miss_latency::total 119962.816276                       # average overall miss latency
system.cpu.dcache.blocked_cycles::no_mshrs         1002                       # number of cycles access was blocked
system.cpu.dcache.blocked_cycles::no_targets            0                       # number of cycles access was blocked
system.cpu.dcache.blocked::no_mshrs                31                       # number of cycles access was blocked
system.cpu.dcache.blocked::no_targets               0                       # number of cycles access was blocked
system.cpu.dcache.avg_blocked_cycles::no_mshrs    32.322581                       # average number of cycles each access was blocked
system.cpu.dcache.avg_blocked_cycles::no_targets          nan                       # average number of cycles each access was blocked
system.cpu.dcache.writebacks::.writebacks          143                       # number of writebacks
system.cpu.dcache.writebacks::total               143                       # number of writebacks
system.cpu.dcache.demand_mshr_hits::.cpu.data          217                       # number of demand (read+write) MSHR hits
system.cpu.dcache.demand_mshr_hits::total          217                       # number of demand (read+write) MSHR hits
system.cpu.dcache.overall_mshr_hits::.cpu.data          217                       # number of overall MSHR hits
system.cpu.dcache.overall_mshr_hits::total          217                       # number of overall MSHR hits
system.cpu.dcache.demand_mshr_misses::.cpu.data        62660                       # number of demand (read+write) MSHR misses
system.cpu.dcache.demand_mshr_misses::total        62660                       # number of demand (read+write) MSHR misses
system.cpu.dcache.overall_mshr_misses::.cpu.data        62660                       # number of overall MSHR misses
system.cpu.dcache.overall_mshr_misses::total        62660                       # number of overall MSHR misses
system.cpu.dcache.demand_mshr_miss_latency::.cpu.data   7401175999                       # number of demand (read+write) MSHR miss cycles
system.cpu.dcache.demand_mshr_miss_latency::total   7401175999                       # number of demand (read+write) MSHR miss cycles
system.cpu.dcache.overall_mshr_miss_latency::.cpu.data   7401175999                       # number of overall MSHR miss cycles
system.cpu.dcache.overall_mshr_miss_latency::total   7401175999                       # number of overall MSHR miss cycles
system.cpu.dcache.demand_mshr_miss_rate::.cpu.data     0.897348                       # mshr miss rate for demand accesses
system.cpu.dcache.demand_mshr_miss_rate::total     0.897348                       # mshr miss rate for demand accesses
system.cpu.dcache.overall_mshr_miss_rate::.cpu.data     0.897348                       # mshr miss rate for overall accesses
system.cpu.dcache.overall_mshr_miss_rate::total     0.897348                       # mshr miss rate for overall accesses
system.cpu.dcache.demand_avg_mshr_miss_latency::.cpu.data 118116.437903                       # average overall mshr miss latency
system.cpu.dcache.demand_avg_mshr_miss_latency::total 118116.437903                       # average overall mshr miss latency
system.cpu.dcache.overall_avg_mshr_miss_latency::.cpu.data 118116.437903                       # average overall mshr miss latency
system.cpu.dcache.overall_avg_mshr_miss_latency::total 118116.437903                       # average overall mshr miss latency
system.cpu.dcache.replacements                  61635                       # number of replacements
system.cpu.dcache.ReadReq_hits::.cpu.data         5447                       # number of ReadReq hits
system.cpu.dcache.ReadReq_hits::total            5447                       # number of ReadReq hits
system.cpu.dcache.ReadReq_misses::.cpu.data        62753                       # number of ReadReq misses
system.cpu.dcache.ReadReq_misses::total         62753                       # number of ReadReq misses
system.cpu.dcache.ReadReq_miss_latency::.cpu.data   7530214000                       # number of ReadReq miss cycles
system.cpu.dcache.ReadReq_miss_latency::total   7530214000                       # number of ReadReq miss cycles
system.cpu.dcache.ReadReq_accesses::.cpu.data        68200                       # number of ReadReq accesses(hits+misses)
system.cpu.dcache.ReadReq_accesses::total        68200                       # number of ReadReq accesses(hits+misses)
system.cpu.dcache.ReadReq_miss_rate::.cpu.data     0.920132                       # miss rate for ReadReq accesses
system.cpu.dcache.ReadReq_miss_rate::total     0.920132                       # miss rate for ReadReq accesses
system.cpu.dcache.ReadReq_avg_miss_latency::.cpu.data 119997.673418                       # average ReadReq miss latency
system.cpu.dcache.ReadReq_avg_miss_latency::total 119997.673418                       # average ReadReq miss latency
system.cpu.dcache.ReadReq_mshr_hits::.cpu.data          215                       # number of ReadReq MSHR hits
system.cpu.dcache.ReadReq_mshr_hits::total          215                       # number of ReadReq MSHR hits
system.cpu.dcache.ReadReq_mshr_misses::.cpu.data        62538                       # number of ReadReq MSHR misses
system.cpu.dcache.ReadReq_mshr_misses::total        62538                       # number of ReadReq MSHR misses
system.cpu.dcache.ReadReq_mshr_miss_latency::.cpu.data   7388751000                       # number of ReadReq MSHR miss cycles
system.cpu.dcache.ReadReq_mshr_miss_latency::total   7388751000                       # number of ReadReq MSHR miss cycles
system.cpu.dcache.ReadReq_mshr_miss_rate::.cpu.data     0.916979                       # mshr miss rate for ReadReq accesses
system.cpu.dcache.ReadReq_mshr_miss_rate::total     0.916979                       # mshr miss rate for ReadReq accesses
system.cpu.dcache.ReadReq_avg_mshr_miss_latency::.cpu.data 118148.181905                       # average ReadReq mshr miss latency
system.cpu.dcache.ReadReq_avg_mshr_miss_latency::total 118148.181905                       # average ReadReq mshr miss latency
system.cpu.dcache.WriteReq_hits::.cpu.data         1504                       # number of WriteReq hits
system.cpu.dcache.WriteReq_hits::total           1504                       # number of WriteReq hits
system.cpu.dcache.WriteReq_misses::.cpu.data          124                       # number of WriteReq misses
system.cpu.dcache.WriteReq_misses::total          124                       # number of WriteReq misses
system.cpu.dcache.WriteReq_miss_latency::.cpu.data     12687999                       # number of WriteReq miss cycles
system.cpu.dcache.WriteReq_miss_latency::total     12687999                       # number of WriteReq miss cycles
system.cpu.dcache.WriteReq_accesses::.cpu.data         1628                       # number of WriteReq accesses(hits+misses)
system.cpu.dcache.WriteReq_accesses::total         1628                       # number of WriteReq accesses(hits+misses)
system.cpu.dcache.WriteReq_miss_rate::.cpu.data     0.076167                       # miss rate for WriteReq accesses
system.cpu.dcache.WriteReq_miss_rate::total     0.076167                       # miss rate for WriteReq accesses
system.cpu.dcache.WriteReq_avg_miss_latency::.cpu.data 102322.572581                       # average WriteReq miss latency
system.cpu.dcache.WriteReq_avg_miss_latency::total 102322.572581                       # average WriteReq miss latency
system.cpu.dcache.WriteReq_mshr_hits::.cpu.data            2                       # number of WriteReq MSHR hits
system.cpu.dcache.WriteReq_mshr_hits::total            2                       # number of WriteReq MSHR hits
system.cpu.dcache.WriteReq_mshr_misses::.cpu.data          122                       # number of WriteReq MSHR misses
system.cpu.dcache.WriteReq_mshr_misses::total          122                       # number of WriteReq MSHR misses
system.cpu.dcache.WriteReq_mshr_miss_latency::.cpu.data     12424999                       # number of WriteReq MSHR miss cycles
system.cpu.dcache.WriteReq_mshr_miss_latency::total     12424999                       # number of WriteReq MSHR miss cycles
system.cpu.dcache.WriteReq_mshr_miss_rate::.cpu.data     0.074939                       # mshr miss rate for WriteReq accesses
system.cpu.dcache.WriteReq_mshr_miss_rate::total     0.074939                       # mshr miss rate for WriteReq accesses
system.cpu.dcache.WriteReq_avg_mshr_miss_latency::.cpu.data 101844.254098                       # average WriteReq mshr miss latency
system.cpu.dcache.WriteReq_avg_mshr_miss_latency::total 101844.254098                       # average WriteReq mshr miss latency
system.cpu.dcache.power_state.pwrStateResidencyTicks::UNDEFINED   8211147000                       # Cumulative time (in ticks) in various power states
system.cpu.dcache.tags.tagsinuse          1009.914101                       # Cycle average of tags in use
system.cpu.dcache.tags.total_refs               69612                       # Total number of references to valid blocks.
system.cpu.dcache.tags.sampled_refs             62659                       # Sample count of references to valid blocks.
system.cpu.dcache.tags.avg_refs              1.110966                       # Average number of references to valid blocks.
system.cpu.dcache.tags.warmup_cycle            222000                       # Cycle when the warmup percentage was hit.
system.cpu.dcache.tags.occ_blocks::.cpu.data  1009.914101                       # Average occupied blocks per requestor
system.cpu.dcache.tags.occ_percent::.cpu.data     0.986244                       # Average percentage of cache occupancy
system.cpu.dcache.tags.occ_percent::total     0.986244                       # Average percentage of cache occupancy
system.cpu.dcache.tags.occ_task_id_blocks::1024         1024                       # Occupied blocks per task id
system.cpu.dcache.tags.age_task_id_blocks_1024::0           84                       # Occupied blocks per task id
system.cpu.dcache.tags.age_task_id_blocks_1024::1          542                       # Occupied blocks per task id
system.cpu.dcache.tags.age_task_id_blocks_1024::2          398                       # Occupied blocks per task id
system.cpu.dcache.tags.occ_task_id_percent::1024            1                       # Percentage of cache occupancy per task id
system.cpu.dcache.tags.tag_accesses            202315                       # Number of tag accesses
system.cpu.dcache.tags.data_accesses           202315                       # Number of data accesses
system.cpu.dcache.tags.power_state.pwrStateResidencyTicks::UNDEFINED   8211147000                       # Cumulative time (in ticks) in various power states
system.cpu.decode.idleCycles                    72685                       # Number of cycles decode is idle
system.cpu.decode.blockedCycles               7971583                       # Number of cycles decode is blocked
system.cpu.decode.runCycles                      5116                       # Number of cycles decode is running
system.cpu.decode.unblockCycles                139754                       # Number of cycles decode is unblocking
system.cpu.decode.squashCycles                    598                       # Number of cycles decode is squashing
system.cpu.decode.branchResolved                67004                       # Number of times decode resolved a  branch
system.cpu.decode.branchMispred                   233                       # Number of times decode detected a branch misprediction
system.cpu.decode.decodedInsts                1149619                       # Number of instructions handled by decode
system.cpu.decode.squashedInsts                  1111                       # Number of squashed instructions handled by decode
system.cpu.dtb.rdAccesses                       68491                       # TLB accesses on read requests
system.cpu.dtb.wrAccesses                        2149                       # TLB accesses on write requests
system.cpu.dtb.rdMisses                         49673                       # TLB misses on read requests
system.cpu.dtb.wrMisses                            25                       # TLB misses on write requests
system.cpu.dtb.walker.power_state.pwrStateResidencyTicks::UNDEFINED   8211147000                       # Cumulative time (in ticks) in various power states
system.cpu.fetch.icacheStallCycles              16416                       # Number of cycles fetch is stalled on an Icache miss
system.cpu.fetch.insts                         741457                       # Number of instructions fetch has processed
system.cpu.fetch.branches                       69965                       # Number of branches that fetch encountered
system.cpu.fetch.predictedBranches              67179                       # Number of branches that fetch has predicted taken
system.cpu.fetch.cycles                       8171916                       # Number of cycles fetch has run and was not squashing or blocked
system.cpu.fetch.squashCycles                    1642                       # Number of cycles fetch has spent squashing
system.cpu.fetch.miscStallCycles                   86                       # Number of cycles fetch has spent waiting on interrupts,or bad addresses, or out of MSHRs
system.cpu.fetch.pendingTrapStallCycles           482                       # Number of stall cycles due to pending traps
system.cpu.fetch.pendingQuiesceStallCycles            4                       # Number of stall cycles due to pending quiesce instructions
system.cpu.fetch.icacheWaitRetryStallCycles           11                       # Number of stall cycles due to full MSHR
system.cpu.fetch.cacheLines                      3188                       # Number of cache lines fetched
system.cpu.fetch.icacheSquashes                   377                       # Number of outstanding Icache misses that were squashed
system.cpu.fetch.nisnDist::samples            8189736                       # Number of instructions fetched each cycle (Total)
system.cpu.fetch.nisnDist::mean              0.140885                       # Number of instructions fetched each cycle (Total)
system.cpu.fetch.nisnDist::stdev             0.966953                       # Number of instructions fetched each cycle (Total)
system.cpu.fetch.nisnDist::underflows               0      0.00%      0.00% # Number of instructions fetched each cycle (Total)
system.cpu.fetch.nisnDist::0                  7986806     97.52%     97.52% # Number of instructions fetched each cycle (Total)
system.cpu.fetch.nisnDist::1                    16702      0.20%     97.73% # Number of instructions fetched each cycle (Total)
system.cpu.fetch.nisnDist::2                    16658      0.20%     97.93% # Number of instructions fetched each cycle (Total)
system.cpu.fetch.nisnDist::3                    16908      0.21%     98.14% # Number of instructions fetched each cycle (Total)
system.cpu.fetch.nisnDist::4                    16967      0.21%     98.34% # Number of instructions fetched each cycle (Total)
system.cpu.fetch.nisnDist::5                    16703      0.20%     98.55% # Number of instructions fetched each cycle (Total)
system.cpu.fetch.nisnDist::6                    16794      0.21%     98.75% # Number of instructions fetched each cycle (Total)
system.cpu.fetch.nisnDist::7                    16658      0.20%     98.96% # Number of instructions fetched each cycle (Total)
system.cpu.fetch.nisnDist::8                    85540      1.04%    100.00% # Number of instructions fetched each cycle (Total)
system.cpu.fetch.nisnDist::overflows                0      0.00%    100.00% # Number of instructions fetched each cycle (Total)
system.cpu.fetch.nisnDist::min_value                0                       # Number of instructions fetched each cycle (Total)
system.cpu.fetch.nisnDist::max_value                8                       # Number of instructions fetched each cycle (Total)
system.cpu.fetch.nisnDist::total              8189736                       # Number of instructions fetched each cycle (Total)
system.cpu.fetch.branchRate                  0.008521                       # Number of branch fetches per cycle
system.cpu.fetch.rate                        0.090299                       # Number of inst fetches per cycle
system.cpu.icache.demand_hits::.cpu.inst         2555                       # number of demand (read+write) hits
system.cpu.icache.demand_hits::total             2555                       # number of demand (read+write) hits
system.cpu.icache.overall_hits::.cpu.inst         2555                       # number of overall hits
system.cpu.icache.overall_hits::total            2555                       # number of overall hits
system.cpu.icache.demand_misses::.cpu.inst          633                       # number of demand (read+write) misses
system.cpu.icache.demand_misses::total            633                       # number of demand (read+write) misses
system.cpu.icache.overall_misses::.cpu.inst          633                       # number of overall misses
system.cpu.icache.overall_misses::total           633                       # number of overall misses
system.cpu.icache.demand_miss_latency::.cpu.inst     59293000                       # number of demand (read+write) miss cycles
system.cpu.icache.demand_miss_latency::total     59293000                       # number of demand (read+write) miss cycles
system.cpu.icache.overall_miss_latency::.cpu.inst     59293000                       # number of overall miss cycles
system.cpu.icache.overall_miss_latency::total     59293000                       # number of overall miss cycles
system.cpu.icache.demand_accesses::.cpu.inst         3188                       # number of demand (read+write) accesses
system.cpu.icache.demand_accesses::total         3188                       # number of demand (read+write) accesses
system.cpu.icache.overall_accesses::.cpu.inst         3188                       # number of overall (read+write) accesses
system.cpu.icache.overall_accesses::total         3188                       # number of overall (read+write) accesses
system.cpu.icache.demand_miss_rate::.cpu.inst     0.198557                       # miss rate for demand accesses
system.cpu.icache.demand_miss_rate::total     0.198557                       # miss rate for demand accesses
system.cpu.icache.overall_miss_rate::.cpu.inst     0.198557                       # miss rate for overall accesses
system.cpu.icache.overall_miss_rate::total     0.198557                       # miss rate for overall accesses
system.cpu.icache.demand_avg_miss_latency::.cpu.inst 93669.826224                       # average overall miss latency
system.cpu.icache.demand_avg_miss_latency::total 93669.826224                       # average overall miss latency
system.cpu.icache.overall_avg_miss_latency::.cpu.inst 93669.826224                       # average overall miss latency
system.cpu.icache.overall_avg_miss_latency::total 93669.826224                       # average overall miss latency
system.cpu.icache.blocked_cycles::no_mshrs          190                       # number of cycles access was blocked
system.cpu.icache.blocked_cycles::no_targets            0                       # number of cycles access was blocked
system.cpu.icache.blocked::no_mshrs                 3                       # number of cycles access was blocked
system.cpu.icache.blocked::no_targets               0                       # number of cycles access was blocked
system.cpu.icache.avg_blocked_cycles::no_mshrs    63.333333                       # average number of cycles each access was blocked
system.cpu.icache.avg_blocked_cycles::no_targets          nan                       # average number of cycles each access was blocked
system.cpu.icache.demand_mshr_hits::.cpu.inst          144                       # number of demand (read+write) MSHR hits
system.cpu.icache.demand_mshr_hits::total          144                       # number of demand (read+write) MSHR hits
system.cpu.icache.overall_mshr_hits::.cpu.inst          144                       # number of overall MSHR hits
system.cpu.icache.overall_mshr_hits::total          144                       # number of overall MSHR hits
system.cpu.icache.demand_mshr_misses::.cpu.inst          489                       # number of demand (read+write) MSHR misses
system.cpu.icache.demand_mshr_misses::total          489                       # number of demand (read+write) MSHR misses
system.cpu.icache.overall_mshr_misses::.cpu.inst          489                       # number of overall MSHR misses
system.cpu.icache.overall_mshr_misses::total          489                       # number of overall MSHR misses
system.cpu.icache.demand_mshr_miss_latency::.cpu.inst     48468000                       # number of demand (read+write) MSHR miss cycles
system.cpu.icache.demand_mshr_miss_latency::total     48468000                       # number of demand (read+write) MSHR miss cycles
system.cpu.icache.overall_mshr_miss_latency::.cpu.inst     48468000                       # number of overall MSHR miss cycles
system.cpu.icache.overall_mshr_miss_latency::total     48468000                       # number of overall MSHR miss cycles
system.cpu.icache.demand_mshr_miss_rate::.cpu.inst     0.153388                       # mshr miss rate for demand accesses
system.cpu.icache.demand_mshr_miss_rate::total     0.153388                       # mshr miss rate for demand accesses
system.cpu.icache.overall_mshr_miss_rate::.cpu.inst     0.153388                       # mshr miss rate for overall accesses
system.cpu.icache.overall_mshr_miss_rate::total     0.153388                       # mshr miss rate for overall accesses
system.cpu.icache.demand_avg_mshr_miss_latency::.cpu.inst 99116.564417                       # average overall mshr miss latency
system.cpu.icache.demand_avg_mshr_miss_latency::total 99116.564417                       # average overall mshr miss latency
system.cpu.icache.overall_avg_mshr_miss_latency::.cpu.inst 99116.564417                       # average overall mshr miss latency
system.cpu.icache.overall_avg_mshr_miss_latency::total 99116.564417                       # average overall mshr miss latency
system.cpu.icache.replacements                    251                       # number of replacements
system.cpu.icache.ReadReq_hits::.cpu.inst         2555                       # number of ReadReq hits
system.cpu.icache.ReadReq_hits::total            2555                       # number of ReadReq hits
system.cpu.icache.ReadReq_misses::.cpu.inst          633                       # number of ReadReq misses
system.cpu.icache.ReadReq_misses::total           633                       # number of ReadReq misses
system.cpu.icache.ReadReq_miss_latency::.cpu.inst     59293000                       # number of ReadReq miss cycles
system.cpu.icache.ReadReq_miss_latency::total     59293000                       # number of ReadReq miss cycles
system.cpu.icache.ReadReq_accesses::.cpu.inst         3188                       # number of ReadReq accesses(hits+misses)
system.cpu.icache.ReadReq_accesses::total         3188                       # number of ReadReq accesses(hits+misses)
system.cpu.icache.ReadReq_miss_rate::.cpu.inst     0.198557                       # miss rate for ReadReq accesses
system.cpu.icache.ReadReq_miss_rate::total     0.198557                       # miss rate for ReadReq accesses
system.cpu.icache.ReadReq_avg_miss_latency::.cpu.inst 93669.826224                       # average ReadReq miss latency
system.cpu.icache.ReadReq_avg_miss_latency::total 93669.826224                       # average ReadReq miss latency
system.cpu.icache.ReadReq_mshr_hits::.cpu.inst          144                       # number of ReadReq MSHR hits
system.cpu.icache.ReadReq_mshr_hits::total          144                       # number of ReadReq MSHR hits
system.cpu.icache.ReadReq_mshr_misses::.cpu.inst          489                       # number of ReadReq MSHR misses
system.cpu.icache.ReadReq_mshr_misses::total          489                       # number of ReadReq MSHR misses
system.cpu.icache.ReadReq_mshr_miss_latency::.cpu.inst     48468000                       # number of ReadReq MSHR miss cycles
system.cpu.icache.ReadReq_mshr_miss_latency::total     48468000                       # number of ReadReq MSHR miss cycles
system.cpu.icache.ReadReq_mshr_miss_rate::.cpu.inst     0.153388                       # mshr miss rate for ReadReq accesses
system.cpu.icache.ReadReq_mshr_miss_rate::total     0.153388                       # mshr miss rate for ReadReq accesses
system.cpu.icache.ReadReq_avg_mshr_miss_latency::.cpu.inst 99116.564417                       # average ReadReq mshr miss latency
system.cpu.icache.ReadReq_avg_mshr_miss_latency::total 99116.564417                       # average ReadReq mshr miss latency
system.cpu.icache.power_state.pwrStateResidencyTicks::UNDEFINED   8211147000                       # Cumulative time (in ticks) in various power states
system.cpu.icache.tags.tagsinuse           237.456204                       # Cycle average of tags in use
system.cpu.icache.tags.total_refs                3044                       # Total number of references to valid blocks.
system.cpu.icache.tags.sampled_refs               489                       # Sample count of references to valid blocks.
system.cpu.icache.tags.avg_refs              6.224949                       # Average number of references to valid blocks.
system.cpu.icache.tags.warmup_cycle            107000                       # Cycle when the warmup percentage was hit.
system.cpu.icache.tags.occ_blocks::.cpu.inst   237.456204                       # Average occupied blocks per requestor
system.cpu.icache.tags.occ_percent::.cpu.inst     0.927563                       # Average percentage of cache occupancy
system.cpu.icache.tags.occ_percent::total     0.927563                       # Average percentage of cache occupancy
system.cpu.icache.tags.occ_task_id_blocks::1024          237                       # Occupied blocks per task id
system.cpu.icache.tags.age_task_id_blocks_1024::0           32                       # Occupied blocks per task id
system.cpu.icache.tags.age_task_id_blocks_1024::3          205                       # Occupied blocks per task id
system.cpu.icache.tags.occ_task_id_percent::1024     0.925781                       # Percentage of cache occupancy per task id
system.cpu.icache.tags.tag_accesses              6865                       # Number of tag accesses
system.cpu.icache.tags.data_accesses             6865                       # Number of data accesses
system.cpu.icache.tags.power_state.pwrStateResidencyTicks::UNDEFINED   8211147000                       # Cumulative time (in ticks) in various power states
system.cpu.interrupts.clk_domain.clock          16000                       # Clock period in ticks
system.cpu.itb.rdAccesses                           0                       # TLB accesses on read requests
system.cpu.itb.wrAccesses                        3275                       # TLB accesses on write requests
system.cpu.itb.rdMisses                             0                       # TLB misses on read requests
system.cpu.itb.wrMisses                           131                       # TLB misses on write requests
system.cpu.itb.walker.power_state.pwrStateResidencyTicks::UNDEFINED   8211147000                       # Cumulative time (in ticks) in various power states
system.cpu.lsq0.forwLoads                         195                       # Number of loads that had data forwarded from stores
system.cpu.lsq0.squashedLoads                    1771                       # Number of loads squashed
system.cpu.lsq0.ignoredResponses                    5                       # Number of memory responses ignored because the instruction is squashed
system.cpu.lsq0.memOrderViolation                  17                       # Number of memory ordering violations
system.cpu.lsq0.squashedStores                    984                       # Number of stores squashed
system.cpu.lsq0.rescheduledLoads                    0                       # Number of loads that were rescheduled
system.cpu.lsq0.blockedByCache                     28                       # Number of times an access to memory failed due to the cache being blocked
system.cpu.power_state.pwrStateResidencyTicks::ON   8211147000                       # Cumulative time (in ticks) in various power states
system.cpu.rename.squashCycles                    598                       # Number of cycles rename is squashing
system.cpu.rename.idleCycles                    98481                       # Number of cycles rename is idle
system.cpu.rename.blockCycles                 7373897                       # Number of cycles rename is blocking
system.cpu.rename.serializeStallCycles            459                       # count of cycles rename stalledfor serializing inst
system.cpu.rename.runCycles                     95719                       # Number of cycles rename is running
system.cpu.rename.unblockCycles                620582                       # Number of cycles rename is unblocking
system.cpu.rename.renamedInsts                1148262                       # Number of instructions processed by rename
system.cpu.rename.ROBFullEvents                    52                       # Number of times rename has blocked due to ROB full
system.cpu.rename.IQFullEvents                 592228                       # Number of times rename has blocked due to IQ full
system.cpu.rename.SQFullEvents                   4671                       # Number of times rename has blocked due to SQ full
system.cpu.rename.renamedOperands             2134824                       # Number of destination operands rename has renamed
system.cpu.rename.lookups                     2639296                       # Number of register rename lookups that rename has made
system.cpu.rename.intLookups                  1752604                       # Number of integer rename lookups
system.cpu.rename.fpLookups                      1851                       # Number of floating rename lookups
system.cpu.rename.committedMaps               2116750                       # Number of HB maps that are committed
system.cpu.rename.undoneMaps                    18060                       # Number of HB maps that are undone due to squashing
system.cpu.rename.serializing                      13                       # count of serializing insts renamed
system.cpu.rename.tempSerializing                  15                       # count of temporary serializing insts renamed
system.cpu.rename.skidInsts                    834048                       # count of insts added to the skid buffer
system.cpu.rob.reads                          9332358                       # The number of ROB reads
system.cpu.rob.writes                         2293362                       # The number of ROB writes
system.cpu.thread_0.numInsts                   729871                       # Number of Instructions committed
system.cpu.thread_0.numOps                    1131598                       # Number of Ops committed
system.cpu.thread_0.numMemRefs                      0                       # Number of Memory References
system.l2bus.trans_dist::ReadResp               63027                       # Transaction distribution
system.l2bus.trans_dist::WritebackDirty           286                       # Transaction distribution
system.l2bus.trans_dist::CleanEvict            124111                       # Transaction distribution
system.l2bus.trans_dist::UpgradeReq                 1                       # Transaction distribution
system.l2bus.trans_dist::UpgradeResp                1                       # Transaction distribution
system.l2bus.trans_dist::ReadExReq                121                       # Transaction distribution
system.l2bus.trans_dist::ReadExResp               121                       # Transaction distribution
system.l2bus.trans_dist::ReadSharedReq          63027                       # Transaction distribution
system.l2bus.pkt_count_system.cpu.icache.mem_side_port::system.l2cache.cpu_side_port         1229                       # Packet count per connected requestor and responder (bytes)
system.l2bus.pkt_count_system.cpu.dcache.mem_side_port::system.l2cache.cpu_side_port       186955                       # Packet count per connected requestor and responder (bytes)
system.l2bus.pkt_count::total                  188184                       # Packet count per connected requestor and responder (bytes)
system.l2bus.pkt_size_system.cpu.icache.mem_side_port::system.l2cache.cpu_side_port        31296                       # Cumulative packet size per connected requestor and responder (bytes)
system.l2bus.pkt_size_system.cpu.dcache.mem_side_port::system.l2cache.cpu_side_port      4019328                       # Cumulative packet size per connected requestor and responder (bytes)
system.l2bus.pkt_size::total                  4050624                       # Cumulative packet size per connected requestor and responder (bytes)
system.l2bus.snoops                             62511                       # Total snoops (count)
system.l2bus.snoopTraffic                        9152                       # Total snoop traffic (bytes)
system.l2bus.snoop_fanout::samples             125660                       # Request fanout histogram
system.l2bus.snoop_fanout::mean              0.411531                       # Request fanout histogram
system.l2bus.snoop_fanout::stdev             0.492129                       # Request fanout histogram
system.l2bus.snoop_fanout::underflows               0      0.00%      0.00% # Request fanout histogram
system.l2bus.snoop_fanout::0                    73948     58.85%     58.85% # Request fanout histogram
system.l2bus.snoop_fanout::1                    51711     41.15%    100.00% # Request fanout histogram
system.l2bus.snoop_fanout::2                        1      0.00%    100.00% # Request fanout histogram
system.l2bus.snoop_fanout::overflows                0      0.00%    100.00% # Request fanout histogram
system.l2bus.snoop_fanout::min_value                0                       # Request fanout histogram
system.l2bus.snoop_fanout::max_value                2                       # Request fanout histogram
system.l2bus.snoop_fanout::total               125660                       # Request fanout histogram
system.l2bus.power_state.pwrStateResidencyTicks::UNDEFINED   8211147000                       # Cumulative time (in ticks) in various power states
system.l2bus.reqLayer0.occupancy            125321000                       # Layer occupancy (ticks)
system.l2bus.reqLayer0.utilization                1.5                       # Layer utilization (%)
system.l2bus.respLayer0.occupancy             1467000                       # Layer occupancy (ticks)
system.l2bus.respLayer0.utilization               0.0                       # Layer utilization (%)
system.l2bus.respLayer1.occupancy           187978000                       # Layer occupancy (ticks)
system.l2bus.respLayer1.utilization               2.3                       # Layer utilization (%)
system.l2cache.demand_hits::.cpu.inst              22                       # number of demand (read+write) hits
system.l2cache.demand_hits::.cpu.data             236                       # number of demand (read+write) hits
system.l2cache.demand_hits::total                 258                       # number of demand (read+write) hits
system.l2cache.overall_hits::.cpu.inst             22                       # number of overall hits
system.l2cache.overall_hits::.cpu.data            236                       # number of overall hits
system.l2cache.overall_hits::total                258                       # number of overall hits
system.l2cache.demand_misses::.cpu.inst           467                       # number of demand (read+write) misses
system.l2cache.demand_misses::.cpu.data         62423                       # number of demand (read+write) misses
system.l2cache.demand_misses::total             62890                       # number of demand (read+write) misses
system.l2cache.overall_misses::.cpu.inst          467                       # number of overall misses
system.l2cache.overall_misses::.cpu.data        62423                       # number of overall misses
system.l2cache.overall_misses::total            62890                       # number of overall misses
system.l2cache.demand_miss_latency::.cpu.inst     46534000                       # number of demand (read+write) miss cycles
system.l2cache.demand_miss_latency::.cpu.data   7208204000                       # number of demand (read+write) miss cycles
system.l2cache.demand_miss_latency::total   7254738000                       # number of demand (read+write) miss cycles
system.l2cache.overall_miss_latency::.cpu.inst     46534000                       # number of overall miss cycles
system.l2cache.overall_miss_latency::.cpu.data   7208204000                       # number of overall miss cycles
system.l2cache.overall_miss_latency::total   7254738000                       # number of overall miss cycles
system.l2cache.demand_accesses::.cpu.inst          489                       # number of demand (read+write) accesses
system.l2cache.demand_accesses::.cpu.data        62659                       # number of demand (read+write) accesses
system.l2cache.demand_accesses::total           63148                       # number of demand (read+write) accesses
system.l2cache.overall_accesses::.cpu.inst          489                       # number of overall (read+write) accesses
system.l2cache.overall_accesses::.cpu.data        62659                       # number of overall (read+write) accesses
system.l2cache.overall_accesses::total          63148                       # number of overall (read+write) accesses
system.l2cache.demand_miss_rate::.cpu.inst     0.955010                       # miss rate for demand accesses
system.l2cache.demand_miss_rate::.cpu.data     0.996234                       # miss rate for demand accesses
system.l2cache.demand_miss_rate::total       0.995914                       # miss rate for demand accesses
system.l2cache.overall_miss_rate::.cpu.inst     0.955010                       # miss rate for overall accesses
system.l2cache.overall_miss_rate::.cpu.data     0.996234                       # miss rate for overall accesses
system.l2cache.overall_miss_rate::total      0.995914                       # miss rate for overall accesses
system.l2cache.demand_avg_miss_latency::.cpu.inst 99644.539615                       # average overall miss latency
system.l2cache.demand_avg_miss_latency::.cpu.data 115473.527386                       # average overall miss latency
system.l2cache.demand_avg_miss_latency::total 115355.986643                       # average overall miss latency
system.l2cache.overall_avg_miss_latency::.cpu.inst 99644.539615                       # average overall miss latency
system.l2cache.overall_avg_miss_latency::.cpu.data 115473.527386                       # average overall miss latency
system.l2cache.overall_avg_miss_latency::total 115355.986643                       # average overall miss latency
system.l2cache.blocked_cycles::no_mshrs             0                       # number of cycles access was blocked
system.l2cache.blocked_cycles::no_targets            0                       # number of cycles access was blocked
system.l2cache.blocked::no_mshrs                    0                       # number of cycles access was blocked
system.l2cache.blocked::no_targets                  0                       # number of cycles access was blocked
system.l2cache.avg_blocked_cycles::no_mshrs          nan                       # average number of cycles each access was blocked
system.l2cache.avg_blocked_cycles::no_targets          nan                       # average number of cycles each access was blocked
system.l2cache.writebacks::.writebacks            143                       # number of writebacks
system.l2cache.writebacks::total                  143                       # number of writebacks
system.l2cache.demand_mshr_misses::.cpu.inst          467                       # number of demand (read+write) MSHR misses
system.l2cache.demand_mshr_misses::.cpu.data        62423                       # number of demand (read+write) MSHR misses
[...]
system.mem_ctrl.requestorReadRate::.cpu.data 486526912.744346201420                       # Per-requestor bytes read from memory rate (Bytes/sec)
system.mem_ctrl.requestorWriteRate::.writebacks 872959.648633741424                       # Per-requestor bytes write to memory rate (Bytes/sec)
system.mem_ctrl.requestorReadAccesses::.cpu.inst          467                       # Per-requestor read serviced memory accesses
system.mem_ctrl.requestorReadAccesses::.cpu.data        62423                       # Per-requestor read serviced memory accesses
system.mem_ctrl.requestorWriteAccesses::.writebacks          143                       # Per-requestor write serviced memory accesses
system.mem_ctrl.requestorReadTotalLat::.cpu.inst     13209000                       # Per-requestor read total memory access latency
system.mem_ctrl.requestorReadTotalLat::.cpu.data   2736366750                       # Per-requestor read total memory access latency
system.mem_ctrl.requestorWriteTotalLat::.writebacks   5436968000                       # Per-requestor write total memory access latency
system.mem_ctrl.requestorReadAvgLat::.cpu.inst     28284.80                       # Per-requestor read average memory access latency
system.mem_ctrl.requestorReadAvgLat::.cpu.data     43835.87                       # Per-requestor read average memory access latency
system.mem_ctrl.requestorWriteAvgLat::.writebacks  38020755.24                       # Per-requestor write average memory access latency
system.mem_ctrl.dram.bytes_read::.cpu.inst        29888                       # Number of bytes read from this memory
system.mem_ctrl.dram.bytes_read::.cpu.data      3995072                       # Number of bytes read from this memory
system.mem_ctrl.dram.bytes_read::total        4024960                       # Number of bytes read from this memory
system.mem_ctrl.dram.bytes_inst_read::.cpu.inst        29888                       # Number of instructions bytes read from this memory
system.mem_ctrl.dram.bytes_inst_read::total        29888                       # Number of instructions bytes read from this memory
system.mem_ctrl.dram.bytes_written::.writebacks         9152                       # Number of bytes written to this memory
system.mem_ctrl.dram.bytes_written::total         9152                       # Number of bytes written to this memory
system.mem_ctrl.dram.num_reads::.cpu.inst          467                       # Number of read requests responded to by this memory
system.mem_ctrl.dram.num_reads::.cpu.data        62423                       # Number of read requests responded to by this memory
system.mem_ctrl.dram.num_reads::total           62890                       # Number of read requests responded to by this memory
system.mem_ctrl.dram.num_writes::.writebacks          143                       # Number of write requests responded to by this memory
system.mem_ctrl.dram.num_writes::total            143                       # Number of write requests responded to by this memory
system.mem_ctrl.dram.bw_read::.cpu.inst       3639930                       # Total read bandwidth from this memory (bytes/s)
system.mem_ctrl.dram.bw_read::.cpu.data     486542501                       # Total read bandwidth from this memory (bytes/s)
system.mem_ctrl.dram.bw_read::total         490182431                       # Total read bandwidth from this memory (bytes/s)
system.mem_ctrl.dram.bw_inst_read::.cpu.inst      3639930                       # Instruction read bandwidth from this memory (bytes/s)
system.mem_ctrl.dram.bw_inst_read::total      3639930                       # Instruction read bandwidth from this memory (bytes/s)
system.mem_ctrl.dram.bw_write::.writebacks      1114582                       # Write bandwidth from this memory (bytes/s)
system.mem_ctrl.dram.bw_write::total          1114582                       # Write bandwidth from this memory (bytes/s)
system.mem_ctrl.dram.bw_total::.writebacks      1114582                       # Total bandwidth to/from this memory (bytes/s)
system.mem_ctrl.dram.bw_total::.cpu.inst      3639930                       # Total bandwidth to/from this memory (bytes/s)
system.mem_ctrl.dram.bw_total::.cpu.data    486542501                       # Total bandwidth to/from this memory (bytes/s)
system.mem_ctrl.dram.bw_total::total        491297014                       # Total bandwidth to/from this memory (bytes/s)
system.mem_ctrl.dram.readBursts                 62888                       # Number of DRAM read bursts
system.mem_ctrl.dram.writeBursts                  112                       # Number of DRAM write bursts
system.mem_ctrl.dram.perBankRdBursts::0          3972                       # Per bank write bursts
system.mem_ctrl.dram.perBankRdBursts::1          3988                       # Per bank write bursts
system.mem_ctrl.dram.perBankRdBursts::2          3910                       # Per bank write bursts
system.mem_ctrl.dram.perBankRdBursts::3          3954                       # Per bank write bursts
system.mem_ctrl.dram.perBankRdBursts::4          3897                       # Per bank write bursts
system.mem_ctrl.dram.perBankRdBursts::5          3899                       # Per bank write bursts
system.mem_ctrl.dram.perBankRdBursts::6          3948                       # Per bank write bursts
system.mem_ctrl.dram.perBankRdBursts::7          3930                       # Per bank write bursts
system.mem_ctrl.dram.perBankRdBursts::8          3922                       # Per bank write bursts
system.mem_ctrl.dram.perBankRdBursts::9          3868                       # Per bank write bursts
system.mem_ctrl.dram.perBankRdBursts::10         3926                       # Per bank write bursts
system.mem_ctrl.dram.perBankRdBursts::11         3906                       # Per bank write bursts
system.mem_ctrl.dram.perBankRdBursts::12         3921                       # Per bank write bursts
system.mem_ctrl.dram.perBankRdBursts::13         3907                       # Per bank write bursts
system.mem_ctrl.dram.perBankRdBursts::14         3946                       # Per bank write bursts
system.mem_ctrl.dram.perBankRdBursts::15         3994                       # Per bank write bursts
system.mem_ctrl.dram.perBankWrBursts::0            16                       # Per bank write bursts
system.mem_ctrl.dram.perBankWrBursts::1            18                       # Per bank write bursts
system.mem_ctrl.dram.perBankWrBursts::2             5                       # Per bank write bursts
system.mem_ctrl.dram.perBankWrBursts::3            41                       # Per bank write bursts
system.mem_ctrl.dram.perBankWrBursts::4             0                       # Per bank write bursts
system.mem_ctrl.dram.perBankWrBursts::5             0                       # Per bank write bursts
system.mem_ctrl.dram.perBankWrBursts::6             0                       # Per bank write bursts
system.mem_ctrl.dram.perBankWrBursts::7             0                       # Per bank write bursts
system.mem_ctrl.dram.perBankWrBursts::8             0                       # Per bank write bursts
system.mem_ctrl.dram.perBankWrBursts::9             0                       # Per bank write bursts
system.mem_ctrl.dram.perBankWrBursts::10            0                       # Per bank write bursts
system.mem_ctrl.dram.perBankWrBursts::11            0                       # Per bank write bursts
system.mem_ctrl.dram.perBankWrBursts::12            0                       # Per bank write bursts
system.mem_ctrl.dram.perBankWrBursts::13            0                       # Per bank write bursts
system.mem_ctrl.dram.perBankWrBursts::14            0                       # Per bank write bursts
system.mem_ctrl.dram.perBankWrBursts::15           32                       # Per bank write bursts
system.mem_ctrl.dram.totQLat               1570425750                       # Total ticks spent queuing
system.mem_ctrl.dram.totBusLat              314440000                       # Total ticks spent in databus transfers
system.mem_ctrl.dram.totMemAccLat          2749575750                       # Total ticks spent from burst creation until serviced by the DRAM
system.mem_ctrl.dram.avgQLat                 24971.79                       # Average queueing delay per DRAM burst
system.mem_ctrl.dram.avgBusLat                5000.00                       # Average bus latency per DRAM burst
system.mem_ctrl.dram.avgMemAccLat            43721.79                       # Average memory access latency per DRAM burst
system.mem_ctrl.dram.readRowHits                 5729                       # Number of row buffer hits during reads
system.mem_ctrl.dram.writeRowHits                  95                       # Number of row buffer hits during writes
system.mem_ctrl.dram.readRowHitRate              9.11                       # Row buffer hit rate for reads
system.mem_ctrl.dram.writeRowHitRate            84.82                       # Row buffer hit rate for writes
system.mem_ctrl.dram.bytesPerActivate::samples        57164                       # Bytes accessed per row activation
system.mem_ctrl.dram.bytesPerActivate::mean    70.490239                       # Bytes accessed per row activation
system.mem_ctrl.dram.bytesPerActivate::gmean    68.149892                       # Bytes accessed per row activation
system.mem_ctrl.dram.bytesPerActivate::stdev    29.140854                       # Bytes accessed per row activation
system.mem_ctrl.dram.bytesPerActivate::0-127        52440     91.74%     91.74% # Bytes accessed per row activation
system.mem_ctrl.dram.bytesPerActivate::128-255         4573      8.00%     99.74% # Bytes accessed per row activation
system.mem_ctrl.dram.bytesPerActivate::256-383           87      0.15%     99.89% # Bytes accessed per row activation
system.mem_ctrl.dram.bytesPerActivate::384-511           25      0.04%     99.93% # Bytes accessed per row activation
system.mem_ctrl.dram.bytesPerActivate::512-639           13      0.02%     99.95% # Bytes accessed per row activation
system.mem_ctrl.dram.bytesPerActivate::640-767            7      0.01%     99.97% # Bytes accessed per row activation
system.mem_ctrl.dram.bytesPerActivate::768-895            5      0.01%     99.98% # Bytes accessed per row activation
system.mem_ctrl.dram.bytesPerActivate::896-1023            1      0.00%     99.98% # Bytes accessed per row activation
system.mem_ctrl.dram.bytesPerActivate::1024-1151           13      0.02%    100.00% # Bytes accessed per row activation
system.mem_ctrl.dram.bytesPerActivate::total        57164                       # Bytes accessed per row activation
system.mem_ctrl.dram.bytesRead                4024832                       # Total number of bytes read from DRAM
system.mem_ctrl.dram.bytesWritten                7168                       # Total number of bytes written to DRAM
system.mem_ctrl.dram.avgRdBW               490.166843                       # Average DRAM read bandwidth in MiBytes/s
system.mem_ctrl.dram.avgWrBW                 0.872960                       # Average DRAM write bandwidth in MiBytes/s
system.mem_ctrl.dram.peakBW                  12800.00                       # Theoretical peak bandwidth in MiByte/s
system.mem_ctrl.dram.busUtil                     3.84                       # Data bus utilization in percentage
system.mem_ctrl.dram.busUtilRead                 3.83                       # Data bus utilization in percentage for reads
system.mem_ctrl.dram.busUtilWrite                0.01                       # Data bus utilization in percentage for writes
system.mem_ctrl.dram.pageHitRate                 9.24                       # Row buffer hit rate, read and write combined
system.mem_ctrl.dram.power_state.pwrStateResidencyTicks::UNDEFINED   8211147000                       # Cumulative time (in ticks) in various power states
system.mem_ctrl.dram.rank0.actEnergy        204582420                       # Energy for activate commands per rank (pJ)
system.mem_ctrl.dram.rank0.preEnergy        108711570                       # Energy for precharge commands per rank (pJ)
system.mem_ctrl.dram.rank0.readEnergy       224895720                       # Energy for read commands per rank (pJ)
system.mem_ctrl.dram.rank0.writeEnergy         417600                       # Energy for write commands per rank (pJ)
system.mem_ctrl.dram.rank0.refreshEnergy 647830560.000000                       # Energy for refresh commands per rank (pJ)
system.mem_ctrl.dram.rank0.actBackEnergy   3673818150                       # Energy for active background per rank (pJ)
system.mem_ctrl.dram.rank0.preBackEnergy     59339040                       # Energy for precharge background per rank (pJ)
system.mem_ctrl.dram.rank0.actPowerDownEnergy            0                       # Energy for active power-down per rank (pJ)
system.mem_ctrl.dram.rank0.prePowerDownEnergy            0                       # Energy for precharge power-down per rank (pJ)
system.mem_ctrl.dram.rank0.selfRefreshEnergy            0                       # Energy for self refresh per rank (pJ)
system.mem_ctrl.dram.rank0.totalEnergy     4919595060                       # Total energy per rank (pJ)
system.mem_ctrl.dram.rank0.averagePower    599.136157                       # Core power per rank (mW)
system.mem_ctrl.dram.rank0.totalIdleTime            0                       # Total Idle time Per DRAM Rank
system.mem_ctrl.dram.rank0.pwrStateTime::IDLE    122578500                       # Time in different power states
system.mem_ctrl.dram.rank0.pwrStateTime::REF    274040000                       # Time in different power states
system.mem_ctrl.dram.rank0.pwrStateTime::SREF            0                       # Time in different power states
system.mem_ctrl.dram.rank0.pwrStateTime::PRE_PDN            0                       # Time in different power states
system.mem_ctrl.dram.rank0.pwrStateTime::ACT   7814528500                       # Time in different power states
system.mem_ctrl.dram.rank0.pwrStateTime::ACT_PDN            0                       # Time in different power states
system.mem_ctrl.dram.rank1.actEnergy        203654220                       # Energy for activate commands per rank (pJ)
system.mem_ctrl.dram.rank1.preEnergy        108225810                       # Energy for precharge commands per rank (pJ)
system.mem_ctrl.dram.rank1.readEnergy       224124600                       # Energy for read commands per rank (pJ)
system.mem_ctrl.dram.rank1.writeEnergy         167040                       # Energy for write commands per rank (pJ)
system.mem_ctrl.dram.rank1.refreshEnergy 647830560.000000                       # Energy for refresh commands per rank (pJ)
system.mem_ctrl.dram.rank1.actBackEnergy   3671547840                       # Energy for active background per rank (pJ)
system.mem_ctrl.dram.rank1.preBackEnergy     61250880                       # Energy for precharge background per rank (pJ)
system.mem_ctrl.dram.rank1.actPowerDownEnergy            0                       # Energy for active power-down per rank (pJ)
system.mem_ctrl.dram.rank1.prePowerDownEnergy            0                       # Energy for precharge power-down per rank (pJ)
system.mem_ctrl.dram.rank1.selfRefreshEnergy            0                       # Energy for self refresh per rank (pJ)
system.mem_ctrl.dram.rank1.totalEnergy     4916800950                       # Total energy per rank (pJ)
system.mem_ctrl.dram.rank1.averagePower    598.795875                       # Core power per rank (mW)
system.mem_ctrl.dram.rank1.totalIdleTime            0                       # Total Idle time Per DRAM Rank
system.mem_ctrl.dram.rank1.pwrStateTime::IDLE    128718750                       # Time in different power states
system.mem_ctrl.dram.rank1.pwrStateTime::REF    274040000                       # Time in different power states
system.mem_ctrl.dram.rank1.pwrStateTime::SREF            0                       # Time in different power states
system.mem_ctrl.dram.rank1.pwrStateTime::PRE_PDN            0                       # Time in different power states
system.mem_ctrl.dram.rank1.pwrStateTime::ACT   7808388250                       # Time in different power states
system.mem_ctrl.dram.rank1.pwrStateTime::ACT_PDN            0                       # Time in different power states
system.mem_ctrl.power_state.pwrStateResidencyTicks::UNDEFINED   8211147000                       # Cumulative time (in ticks) in various power states
system.membus.trans_dist::ReadResp              62769                       # Transaction distribution
system.membus.trans_dist::WritebackDirty          143                       # Transaction distribution
system.membus.trans_dist::CleanEvict            61402                       # Transaction distribution
system.membus.trans_dist::ReadExReq               121                       # Transaction distribution
system.membus.trans_dist::ReadExResp              121                       # Transaction distribution
system.membus.trans_dist::ReadSharedReq         62769                       # Transaction distribution
system.membus.pkt_count_system.l2cache.mem_side_port::system.mem_ctrl.port       187325                       # Packet count per connected requestor and responder (bytes)
system.membus.pkt_count_system.l2cache.mem_side_port::total       187325                       # Packet count per connected requestor and responder (bytes)
system.membus.pkt_count::total                 187325                       # Packet count per connected requestor and responder (bytes)
system.membus.pkt_size_system.l2cache.mem_side_port::system.mem_ctrl.port      4034112                       # Cumulative packet size per connected requestor and responder (bytes)
system.membus.pkt_size_system.l2cache.mem_side_port::total      4034112                       # Cumulative packet size per connected requestor and responder (bytes)
system.membus.pkt_size::total                 4034112                       # Cumulative packet size per connected requestor and responder (bytes)
system.membus.snoops                                0                       # Total snoops (count)
system.membus.snoopTraffic                          0                       # Total snoop traffic (bytes)
system.membus.snoop_fanout::samples             62890                       # Request fanout histogram
system.membus.snoop_fanout::mean                    0                       # Request fanout histogram
system.membus.snoop_fanout::stdev                   0                       # Request fanout histogram
system.membus.snoop_fanout::underflows              0      0.00%      0.00% # Request fanout histogram
system.membus.snoop_fanout::0                   62890    100.00%    100.00% # Request fanout histogram
system.membus.snoop_fanout::1                       0      0.00%    100.00% # Request fanout histogram
system.membus.snoop_fanout::overflows               0      0.00%    100.00% # Request fanout histogram
system.membus.snoop_fanout::min_value               0                       # Request fanout histogram
system.membus.snoop_fanout::max_value               0                       # Request fanout histogram
system.membus.snoop_fanout::total               62890                       # Request fanout histogram
system.membus.power_state.pwrStateResidencyTicks::UNDEFINED   8211147000                       # Cumulative time (in ticks) in various power states
system.membus.reqLayer2.occupancy           125007000                       # Layer occupancy (ticks)
system.membus.reqLayer2.utilization               1.5                       # Layer utilization (%)
system.membus.respLayer0.occupancy          354414250                       # Layer occupancy (ticks)
system.membus.respLayer0.utilization              4.3                       # Layer utilization (%)

---------- End Simulation Statistics   ----------
