
---------- Begin Simulation Statistics ----------
final_tick                               114303454000                       # Number of ticks from beginning of simulation (restored from checkpoints and never reset)
host_inst_rate                                 513218                       # Simulator instruction rate (inst/s)
host_mem_usage                                 651204                       # Number of bytes of host memory used
host_op_rate                                   886663                       # Simulator op (including micro ops) rate (op/s)
host_seconds                                    60.72                       # Real time elapsed on the host
host_tick_rate                             1882396714                       # Simulator tick rate (ticks/s)
sim_freq                                 1000000000000                       # Frequency of simulated ticks
sim_insts                                    31163641                       # Number of instructions simulated
sim_ops                                      53840150                       # Number of ops (including micro ops) simulated
sim_seconds                                  0.114303                       # Number of seconds simulated
sim_ticks                                114303454000                       # Number of ticks simulated
system.cpu.Branches                           3147977                       # Number of branches fetched
system.cpu.committedInsts                    31163641                       # Number of instructions committed
system.cpu.committedOps                      53840150                       # Number of ops (including micro ops) committed
system.cpu.idle_fraction                     0.000000                       # Percentage of idle cycles
system.cpu.not_idle_fraction                 1.000000                       # Percentage of non-idle cycles
system.cpu.numCycles                        114303454                       # number of cpu cycles simulated
system.cpu.numWorkItemsCompleted                    0                       # number of work items this cpu completed
system.cpu.numWorkItemsStarted                      0                       # number of work items this cpu started
system.cpu.num_busy_cycles               114303453.999000                       # Number of busy cycles
system.cpu.num_cc_register_reads             14822472                       # number of times the CC registers were read
system.cpu.num_cc_register_writes            15871411                       # number of times the CC registers were written
system.cpu.num_conditional_control_insts      2621583                       # number of instructions that are conditional controls
system.cpu.num_fp_alu_accesses               17960399                       # Number of float alu accesses
system.cpu.num_fp_insts                      17960399                       # number of float instructions
system.cpu.num_fp_register_reads             32379967                       # number of times the floating registers were read
system.cpu.num_fp_register_writes            16583141                       # number of times the floating registers were written
system.cpu.num_func_calls                      525578                       # number of times a function call or return occured
system.cpu.num_idle_cycles                   0.001000                       # Number of idle cycles
system.cpu.num_int_alu_accesses              39667166                       # Number of integer alu accesses
system.cpu.num_int_insts                     39667166                       # number of integer instructions
system.cpu.num_int_register_reads            74191325                       # number of times the integer registers were read
system.cpu.num_int_register_writes           30193689                       # number of times the integer registers were written
system.cpu.num_load_insts                     6721705                       # Number of load instructions
system.cpu.num_mem_refs                      10374293                       # number of memory refs
system.cpu.num_store_insts                    3652588                       # Number of store instructions
system.cpu.num_vec_alu_accesses                     0                       # Number of vector alu accesses
system.cpu.num_vec_insts                            0                       # number of vector instructions
system.cpu.num_vec_register_reads                   0                       # number of times the vector registers were read
system.cpu.num_vec_register_writes                  0                       # number of times the vector registers were written
system.cpu.op_class::No_OpClass                277437      0.52%      0.52% # Class of executed instruction
system.cpu.op_class::IntAlu                  29882385     55.50%     56.02% # Class of executed instruction
system.cpu.op_class::IntMult                       29      0.00%     56.02% # Class of executed instruction
system.cpu.op_class::IntDiv                       196      0.00%     56.02% # Class of executed instruction
system.cpu.op_class::FloatAdd                 1573060      2.92%     58.94% # Class of executed instruction
system.cpu.op_class::FloatCmp                       0      0.00%     58.94% # Class of executed instruction
system.cpu.op_class::FloatCvt                       0      0.00%     58.94% # Class of executed instruction
system.cpu.op_class::FloatMult                      0      0.00%     58.94% # Class of executed instruction
system.cpu.op_class::FloatMultAcc                   0      0.00%     58.94% # Class of executed instruction
system.cpu.op_class::FloatDiv                       0      0.00%     58.94% # Class of executed instruction
system.cpu.op_class::FloatMisc                      0      0.00%     58.94% # Class of executed instruction
system.cpu.op_class::FloatSqrt                      0      0.00%     58.94% # Class of executed instruction
system.cpu.op_class::SimdAdd                    32770      0.06%     59.00% # Class of executed instruction
system.cpu.op_class::SimdAddAcc                     0      0.00%     59.00% # Class of executed instruction
system.cpu.op_class::SimdAlu                  2097654      3.90%     62.90% # Class of executed instruction
system.cpu.op_class::SimdCmp                        6      0.00%     62.90% # Class of executed instruction
system.cpu.op_class::SimdCvt                    33224      0.06%     62.96% # Class of executed instruction
system.cpu.op_class::SimdMisc                 2163418      4.02%     66.98% # Class of executed instruction
system.cpu.op_class::SimdMult                       0      0.00%     66.98% # Class of executed instruction
system.cpu.op_class::SimdMultAcc                    0      0.00%     66.98% # Class of executed instruction
system.cpu.op_class::SimdShift                      6      0.00%     66.98% # Class of executed instruction
system.cpu.op_class::SimdShiftAcc                   0      0.00%     66.98% # Class of executed instruction
system.cpu.op_class::SimdDiv                        0      0.00%     66.98% # Class of executed instruction
system.cpu.op_class::SimdSqrt                       0      0.00%     66.98% # Class of executed instruction
system.cpu.op_class::SimdFloatAdd             1769545      3.29%     70.26% # Class of executed instruction
system.cpu.op_class::SimdFloatAlu                   0      0.00%     70.26% # Class of executed instruction
system.cpu.op_class::SimdFloatCmp                   0      0.00%     70.26% # Class of executed instruction
system.cpu.op_class::SimdFloatCvt             2162696      4.02%     74.28% # Class of executed instruction
system.cpu.op_class::SimdFloatDiv                   2      0.00%     74.28% # Class of executed instruction
system.cpu.op_class::SimdFloatMisc                  0      0.00%     74.28% # Class of executed instruction
system.cpu.op_class::SimdFloatMult            3473479      6.45%     80.73% # Class of executed instruction
system.cpu.op_class::SimdFloatMultAcc               0      0.00%     80.73% # Class of executed instruction
system.cpu.op_class::SimdFloatSqrt                  0      0.00%     80.73% # Class of executed instruction
system.cpu.op_class::SimdReduceAdd                  0      0.00%     80.73% # Class of executed instruction
system.cpu.op_class::SimdReduceAlu                  0      0.00%     80.73% # Class of executed instruction
system.cpu.op_class::SimdReduceCmp                  0      0.00%     80.73% # Class of executed instruction
system.cpu.op_class::SimdFloatReduceAdd             0      0.00%     80.73% # Class of executed instruction
system.cpu.op_class::SimdFloatReduceCmp             0      0.00%     80.73% # Class of executed instruction
system.cpu.op_class::SimdAes                        0      0.00%     80.73% # Class of executed instruction
system.cpu.op_class::SimdAesMix                     0      0.00%     80.73% # Class of executed instruction
system.cpu.op_class::SimdSha1Hash                   0      0.00%     80.73% # Class of executed instruction
system.cpu.op_class::SimdSha1Hash2                  0      0.00%     80.73% # Class of executed instruction
system.cpu.op_class::SimdSha256Hash                 0      0.00%     80.73% # Class of executed instruction
system.cpu.op_class::SimdSha256Hash2                0      0.00%     80.73% # Class of executed instruction
system.cpu.op_class::SimdShaSigma2                  0      0.00%     80.73% # Class of executed instruction
system.cpu.op_class::SimdShaSigma3                  0      0.00%     80.73% # Class of executed instruction
system.cpu.op_class::SimdPredAlu                    0      0.00%     80.73% # Class of executed instruction
system.cpu.op_class::MemRead                  5082841      9.44%     90.17% # Class of executed instruction
system.cpu.op_class::MemWrite                 3389751      6.30%     96.47% # Class of executed instruction
system.cpu.op_class::FloatMemRead             1638864      3.04%     99.51% # Class of executed instruction
system.cpu.op_class::FloatMemWrite             262837      0.49%    100.00% # Class of executed instruction
system.cpu.op_class::IprAccess                      0      0.00%    100.00% # Class of executed instruction
system.cpu.op_class::InstPrefetch                   0      0.00%    100.00% # Class of executed instruction
system.cpu.op_class::total                   53840200                       # Class of executed instruction
system.cpu.workload.numSyscalls                    46                       # Number of system calls
system.l2bus.snoop_filter.hit_multi_requests            0                       # Number of requests hitting in the snoop filter with multiple (>1) holders of the requested data.
system.l2bus.snoop_filter.hit_multi_snoops            0                       # Number of snoops hitting in the snoop filter with multiple (>1) holders of the requested data.
system.l2bus.snoop_filter.hit_single_requests       249874                       # Number of requests hitting in the snoop filter with a single holder of the requested data.
system.l2bus.snoop_filter.hit_single_snoops            0                       # Number of snoops hitting in the snoop filter with a single holder of the requested data.
system.l2bus.snoop_filter.tot_requests         501027                       # Total number of requests made to the snoop filter.
system.l2bus.snoop_filter.tot_snoops                0                       # Total number of snoops made to the snoop filter.
system.membus.snoop_filter.hit_multi_requests            0                       # Number of requests hitting in the snoop filter with multiple (>1) holders of the requested data.
system.membus.snoop_filter.hit_multi_snoops            0                       # Number of snoops hitting in the snoop filter with multiple (>1) holders of the requested data.
system.membus.snoop_filter.hit_single_requests            0                       # Number of requests hitting in the snoop filter with a single holder of the requested data.
system.membus.snoop_filter.hit_single_snoops            0                       # Number of snoops hitting in the snoop filter with a single holder of the requested data.
system.membus.snoop_filter.tot_requests          9500                       # Total number of requests made to the snoop filter.
system.membus.snoop_filter.tot_snoops               0                       # Total number of snoops made to the snoop filter.
system.clk_domain.clock                          1000                       # Clock period in ticks
system.clk_domain.voltage_domain.voltage            1                       # Voltage in Volts
system.cpu.dcache.demand_hits::.cpu.data     10128300                       # number of demand (read+write) hits
system.cpu.dcache.demand_hits::total         10128300                       # number of demand (read+write) hits
system.cpu.dcache.overall_hits::.cpu.data     10128300                       # number of overall hits
system.cpu.dcache.overall_hits::total        10128300                       # number of overall hits
system.cpu.dcache.demand_misses::.cpu.data       250136                       # number of demand (read+write) misses
system.cpu.dcache.demand_misses::total         250136                       # number of demand (read+write) misses
system.cpu.dcache.overall_misses::.cpu.data       250136                       # number of overall misses
system.cpu.dcache.overall_misses::total        250136                       # number of overall misses
system.cpu.dcache.demand_miss_latency::.cpu.data   7247721000                       # number of demand (read+write) miss cycles
system.cpu.dcache.demand_miss_latency::total   7247721000                       # number of demand (read+write) miss cycles
system.cpu.dcache.overall_miss_latency::.cpu.data   7247721000                       # number of overall miss cycles
system.cpu.dcache.overall_miss_latency::total   7247721000                       # number of overall miss cycles
system.cpu.dcache.demand_accesses::.cpu.data     10378436                       # number of demand (read+write) accesses
system.cpu.dcache.demand_accesses::total     10378436                       # number of demand (read+write) accesses
system.cpu.dcache.overall_accesses::.cpu.data     10378436                       # number of overall (read+write) accesses
system.cpu.dcache.overall_accesses::total     10378436                       # number of overall (read+write) accesses
system.cpu.dcache.demand_miss_rate::.cpu.data     0.024102                       # miss rate for demand accesses
system.cpu.dcache.demand_miss_rate::total     0.024102                       # miss rate for demand accesses
system.cpu.dcache.overall_miss_rate::.cpu.data     0.024102                       # miss rate for overall accesses
system.cpu.dcache.overall_miss_rate::total     0.024102                       # miss rate for overall accesses
system.cpu.dcache.demand_avg_miss_latency::.cpu.data 28975.121534                       # average overall miss latency
system.cpu.dcache.demand_avg_miss_latency::total 28975.121534                       # average overall miss latency
system.cpu.dcache.overall_avg_miss_latency::.cpu.data 28975.121534                       # average overall miss latency
system.cpu.dcache.overall_avg_miss_latency::total 28975.121534                       # average overall miss latency
system.cpu.dcache.blocked_cycles::no_mshrs            0                       # number of cycles access was blocked
system.cpu.dcache.blocked_cycles::no_targets            0                       # number of cycles access was blocked
system.cpu.dcache.blocked::no_mshrs                 0                       # number of cycles access was blocked
system.cpu.dcache.blocked::no_targets               0                       # number of cycles access was blocked
system.cpu.dcache.avg_blocked_cycles::no_mshrs          nan                       # average number of cycles each access was blocked
system.cpu.dcache.avg_blocked_cycles::no_targets          nan                       # average number of cycles each access was blocked
system.cpu.dcache.writebacks::.writebacks       249008                       # number of writebacks
system.cpu.dcache.writebacks::total            249008                       # number of writebacks
system.cpu.dcache.demand_mshr_misses::.cpu.data       250136                       # number of demand (read+write) MSHR misses
system.cpu.dcache.demand_mshr_misses::total       250136                       # number of demand (read+write) MSHR misses
system.cpu.dcache.overall_mshr_misses::.cpu.data       250136                       # number of overall MSHR misses
system.cpu.dcache.overall_mshr_misses::total       250136                       # number of overall MSHR misses
system.cpu.dcache.demand_mshr_miss_latency::.cpu.data   6747449000                       # number of demand (read+write) MSHR miss cycles
system.cpu.dcache.demand_mshr_miss_latency::total   6747449000                       # number of demand (read+write) MSHR miss cycles
system.cpu.dcache.overall_mshr_miss_latency::.cpu.data   6747449000                       # number of overall MSHR miss cycles
system.cpu.dcache.overall_mshr_miss_latency::total   6747449000                       # number of overall MSHR miss cycles
system.cpu.dcache.demand_mshr_miss_rate::.cpu.data     0.024102                       # mshr miss rate for demand accesses
system.cpu.dcache.demand_mshr_miss_rate::total     0.024102                       # mshr miss rate for demand accesses
system.cpu.dcache.overall_mshr_miss_rate::.cpu.data     0.024102                       # mshr miss rate for overall accesses
system.cpu.dcache.overall_mshr_miss_rate::total     0.024102                       # mshr miss rate for overall accesses
system.cpu.dcache.demand_avg_mshr_miss_latency::.cpu.data 26975.121534                       # average overall mshr miss latency
system.cpu.dcache.demand_avg_mshr_miss_latency::total 26975.121534                       # average overall mshr miss latency
system.cpu.dcache.overall_avg_mshr_miss_latency::.cpu.data 26975.121534                       # average overall mshr miss latency
system.cpu.dcache.overall_avg_mshr_miss_latency::total 26975.121534                       # average overall mshr miss latency
system.cpu.dcache.replacements                 249112                       # number of replacements
system.cpu.dcache.ReadReq_hits::.cpu.data      6579651                       # number of ReadReq hits
system.cpu.dcache.ReadReq_hits::total         6579651                       # number of ReadReq hits
system.cpu.dcache.ReadReq_misses::.cpu.data       146176                       # number of ReadReq misses
system.cpu.dcache.ReadReq_misses::total        146176                       # number of ReadReq misses
system.cpu.dcache.ReadReq_miss_latency::.cpu.data   3814969000                       # number of ReadReq miss cycles
system.cpu.dcache.ReadReq_miss_latency::total   3814969000                       # number of ReadReq miss cycles
system.cpu.dcache.ReadReq_accesses::.cpu.data      6725827                       # number of ReadReq accesses(hits+misses)
system.cpu.dcache.ReadReq_accesses::total      6725827                       # number of ReadReq accesses(hits+misses)
system.cpu.dcache.ReadReq_miss_rate::.cpu.data     0.021734                       # miss rate for ReadReq accesses
system.cpu.dcache.ReadReq_miss_rate::total     0.021734                       # miss rate for ReadReq accesses
system.cpu.dcache.ReadReq_avg_miss_latency::.cpu.data 26098.463496                       # average ReadReq miss latency
system.cpu.dcache.ReadReq_avg_miss_latency::total 26098.463496                       # average ReadReq miss latency
system.cpu.dcache.ReadReq_mshr_misses::.cpu.data       146176                       # number of ReadReq MSHR misses
system.cpu.dcache.ReadReq_mshr_misses::total       146176                       # number of ReadReq MSHR misses
system.cpu.dcache.ReadReq_mshr_miss_latency::.cpu.data   3522617000                       # number of ReadReq MSHR miss cycles
system.cpu.dcache.ReadReq_mshr_miss_latency::total   3522617000                       # number of ReadReq MSHR miss cycles
system.cpu.dcache.ReadReq_mshr_miss_rate::.cpu.data     0.021734                       # mshr miss rate for ReadReq accesses
system.cpu.dcache.ReadReq_mshr_miss_rate::total     0.021734                       # mshr miss rate for ReadReq accesses
system.cpu.dcache.ReadReq_avg_mshr_miss_latency::.cpu.data 24098.463496                       # average ReadReq mshr miss latency
system.cpu.dcache.ReadReq_avg_mshr_miss_latency::total 24098.463496                       # average ReadReq mshr miss latency
system.cpu.dcache.WriteReq_hits::.cpu.data      3548649                       # number of WriteReq hits
system.cpu.dcache.WriteReq_hits::total        3548649                       # number of WriteReq hits
system.cpu.dcache.WriteReq_misses::.cpu.data       103960                       # number of WriteReq misses
system.cpu.dcache.WriteReq_misses::total       103960                       # number of WriteReq misses
system.cpu.dcache.WriteReq_miss_latency::.cpu.data   3432752000                       # number of WriteReq miss cycles
system.cpu.dcache.WriteReq_miss_latency::total   3432752000                       # number of WriteReq miss cycles
system.cpu.dcache.WriteReq_accesses::.cpu.data      3652609                       # number of WriteReq accesses(hits+misses)
system.cpu.dcache.WriteReq_accesses::total      3652609                       # number of WriteReq accesses(hits+misses)
system.cpu.dcache.WriteReq_miss_rate::.cpu.data     0.028462                       # miss rate for WriteReq accesses
system.cpu.dcache.WriteReq_miss_rate::total     0.028462                       # miss rate for WriteReq accesses
system.cpu.dcache.WriteReq_avg_miss_latency::.cpu.data 33019.930743                       # average WriteReq miss latency
system.cpu.dcache.WriteReq_avg_miss_latency::total 33019.930743                       # average WriteReq miss latency
system.cpu.dcache.WriteReq_mshr_misses::.cpu.data       103960                       # number of WriteReq MSHR misses
system.cpu.dcache.WriteReq_mshr_misses::total       103960                       # number of WriteReq MSHR misses
system.cpu.dcache.WriteReq_mshr_miss_latency::.cpu.data   3224832000                       # number of WriteReq MSHR miss cycles
system.cpu.dcache.WriteReq_mshr_miss_latency::total   3224832000                       # number of WriteReq MSHR miss cycles
system.cpu.dcache.WriteReq_mshr_miss_rate::.cpu.data     0.028462                       # mshr miss rate for WriteReq accesses
system.cpu.dcache.WriteReq_mshr_miss_rate::total     0.028462                       # mshr miss rate for WriteReq accesses
system.cpu.dcache.WriteReq_avg_mshr_miss_latency::.cpu.data 31019.930743                       # average WriteReq mshr miss latency
system.cpu.dcache.WriteReq_avg_mshr_miss_latency::total 31019.930743                       # average WriteReq mshr miss latency
system.cpu.dcache.power_state.pwrStateResidencyTicks::UNDEFINED 114303454000                       # Cumulative time (in ticks) in various power states
system.cpu.dcache.tags.tagsinuse           990.643860                       # Cycle average of tags in use
system.cpu.dcache.tags.total_refs            10378436                       # Total number of references to valid blocks.
system.cpu.dcache.tags.sampled_refs            250136                       # Sample count of references to valid blocks.
system.cpu.dcache.tags.avg_refs             41.491173                       # Average number of references to valid blocks.
system.cpu.dcache.tags.warmup_cycle            224000                       # Cycle when the warmup percentage was hit.
system.cpu.dcache.tags.occ_blocks::.cpu.data   990.643860                       # Average occupied blocks per requestor
system.cpu.dcache.tags.occ_percent::.cpu.data     0.967426                       # Average percentage of cache occupancy
system.cpu.dcache.tags.occ_percent::total     0.967426                       # Average percentage of cache occupancy
system.cpu.dcache.tags.occ_task_id_blocks::1024         1024                       # Occupied blocks per task id
system.cpu.dcache.tags.age_task_id_blocks_1024::0           20                       # Occupied blocks per task id
system.cpu.dcache.tags.age_task_id_blocks_1024::1           45                       # Occupied blocks per task id
system.cpu.dcache.tags.age_task_id_blocks_1024::2          959                       # Occupied blocks per task id
system.cpu.dcache.tags.occ_task_id_percent::1024            1                       # Percentage of cache occupancy per task id
system.cpu.dcache.tags.tag_accesses          21007008                       # Number of tag accesses
system.cpu.dcache.tags.data_accesses         21007008                       # Number of data accesses
system.cpu.dcache.tags.power_state.pwrStateResidencyTicks::UNDEFINED 114303454000                       # Cumulative time (in ticks) in various power states
system.cpu.dtb.rdAccesses                     6725828                       # TLB accesses on read requests
system.cpu.dtb.wrAccesses                     3652612                       # TLB accesses on write requests
system.cpu.dtb.rdMisses                          1853                       # TLB misses on read requests
system.cpu.dtb.wrMisses                         35717                       # TLB misses on write requests
system.cpu.dtb.walker.power_state.pwrStateResidencyTicks::UNDEFINED 114303454000                       # Cumulative time (in ticks) in various power states
system.cpu.icache.demand_hits::.cpu.inst     43360246                       # number of demand (read+write) hits
system.cpu.icache.demand_hits::total         43360246                       # number of demand (read+write) hits
system.cpu.icache.overall_hits::.cpu.inst     43360246                       # number of overall hits
system.cpu.icache.overall_hits::total        43360246                       # number of overall hits
system.cpu.icache.demand_misses::.cpu.inst         1017                       # number of demand (read+write) misses
system.cpu.icache.demand_misses::total           1017                       # number of demand (read+write) misses
system.cpu.icache.overall_misses::.cpu.inst         1017                       # number of overall misses
system.cpu.icache.overall_misses::total          1017                       # number of overall misses
system.cpu.icache.demand_miss_latency::.cpu.inst     86997000                       # number of demand (read+write) miss cycles
system.cpu.icache.demand_miss_latency::total     86997000                       # number of demand (read+write) miss cycles
system.cpu.icache.overall_miss_latency::.cpu.inst     86997000                       # number of overall miss cycles
system.cpu.icache.overall_miss_latency::total     86997000                       # number of overall miss cycles
system.cpu.icache.demand_accesses::.cpu.inst     43361263                       # number of demand (read+write) accesses
system.cpu.icache.demand_accesses::total     43361263                       # number of demand (read+write) accesses
system.cpu.icache.overall_accesses::.cpu.inst     43361263                       # number of overall (read+write) accesses
system.cpu.icache.overall_accesses::total     43361263                       # number of overall (read+write) accesses
system.cpu.icache.demand_miss_rate::.cpu.inst     0.000023                       # miss rate for demand accesses
system.cpu.icache.demand_miss_rate::total     0.000023                       # miss rate for demand accesses
system.cpu.icache.overall_miss_rate::.cpu.inst     0.000023                       # miss rate for overall accesses
system.cpu.icache.overall_miss_rate::total     0.000023                       # miss rate for overall accesses
system.cpu.icache.demand_avg_miss_latency::.cpu.inst 85542.772861                       # average overall miss latency
system.cpu.icache.demand_avg_miss_latency::total 85542.772861                       # average overall miss latency
system.cpu.icache.overall_avg_miss_latency::.cpu.inst 85542.772861                       # average overall miss latency
system.cpu.icache.overall_avg_miss_latency::total 85542.772861                       # average overall miss latency
system.cpu.icache.blocked_cycles::no_mshrs            0                       # number of cycles access was blocked
system.cpu.icache.blocked_cycles::no_targets            0                       # number of cycles access was blocked
system.cpu.icache.blocked::no_mshrs                 0                       # number of cycles access was blocked
system.cpu.icache.blocked::no_targets               0                       # number of cycles access was blocked
system.cpu.icache.avg_blocked_cycles::no_mshrs          nan                       # average number of cycles each access was blocked
system.cpu.icache.avg_blocked_cycles::no_targets          nan                       # average number of cycles each access was blocked
system.cpu.icache.demand_mshr_misses::.cpu.inst         1017                       # number of demand (read+write) MSHR misses
system.cpu.icache.demand_mshr_misses::total         1017                       # number of demand (read+write) MSHR misses
system.cpu.icache.overall_mshr_misses::.cpu.inst         1017                       # number of overall MSHR misses
system.cpu.icache.overall_mshr_misses::total         1017                       # number of overall MSHR misses
system.cpu.icache.demand_mshr_miss_latency::.cpu.inst     84963000                       # number of demand (read+write) MSHR miss cycles
system.cpu.icache.demand_mshr_miss_latency::total     84963000                       # number of demand (read+write) MSHR miss cycles
system.cpu.icache.overall_mshr_miss_latency::.cpu.inst     84963000                       # number of overall MSHR miss cycles
system.cpu.icache.overall_mshr_miss_latency::total     84963000                       # number of overall MSHR miss cycles
system.cpu.icache.demand_mshr_miss_rate::.cpu.inst     0.000023                       # mshr miss rate for demand accesses
system.cpu.icache.demand_mshr_miss_rate::total     0.000023                       # mshr miss rate for demand accesses
system.cpu.icache.overall_mshr_miss_rate::.cpu.inst     0.000023                       # mshr miss rate for overall accesses
system.cpu.icache.overall_mshr_miss_rate::total     0.000023                       # mshr miss rate for overall accesses
system.cpu.icache.demand_avg_mshr_miss_latency::.cpu.inst 83542.772861                       # average overall mshr miss latency
system.cpu.icache.demand_avg_mshr_miss_latency::total 83542.772861                       # average overall mshr miss latency
system.cpu.icache.overall_avg_mshr_miss_latency::.cpu.inst 83542.772861                       # average overall mshr miss latency
system.cpu.icache.overall_avg_mshr_miss_latency::total 83542.772861                       # average overall mshr miss latency
system.cpu.icache.replacements                    762                       # number of replacements
system.cpu.icache.ReadReq_hits::.cpu.inst     43360246                       # number of ReadReq hits
system.cpu.icache.ReadReq_hits::total        43360246                       # number of ReadReq hits
system.cpu.icache.ReadReq_misses::.cpu.inst         1017                       # number of ReadReq misses
system.cpu.icache.ReadReq_misses::total          1017                       # number of ReadReq misses
system.cpu.icache.ReadReq_miss_latency::.cpu.inst     86997000                       # number of ReadReq miss cycles
system.cpu.icache.ReadReq_miss_latency::total     86997000                       # number of ReadReq miss cycles
system.cpu.icache.ReadReq_accesses::.cpu.inst     43361263                       # number of ReadReq accesses(hits+misses)
system.cpu.icache.ReadReq_accesses::total     43361263                       # number of ReadReq accesses(hits+misses)
system.cpu.icache.ReadReq_miss_rate::.cpu.inst     0.000023                       # miss rate for ReadReq accesses
system.cpu.icache.ReadReq_miss_rate::total     0.000023                       # miss rate for ReadReq accesses
system.cpu.icache.ReadReq_avg_miss_latency::.cpu.inst 85542.772861                       # average ReadReq miss latency
system.cpu.icache.ReadReq_avg_miss_latency::total 85542.772861                       # average ReadReq miss latency
system.cpu.icache.ReadReq_mshr_misses::.cpu.inst         1017                       # number of ReadReq MSHR misses
system.cpu.icache.ReadReq_mshr_misses::total         1017                       # number of ReadReq MSHR misses
system.cpu.icache.ReadReq_mshr_miss_latency::.cpu.inst     84963000                       # number of ReadReq MSHR miss cycles
system.cpu.icache.ReadReq_mshr_miss_latency::total     84963000                       # number of ReadReq MSHR miss cycles
system.cpu.icache.ReadReq_mshr_miss_rate::.cpu.inst     0.000023                       # mshr miss rate for ReadReq accesses
system.cpu.icache.ReadReq_mshr_miss_rate::total     0.000023                       # mshr miss rate for ReadReq accesses
system.cpu.icache.ReadReq_avg_mshr_miss_latency::.cpu.inst 83542.772861                       # average ReadReq mshr miss latency
system.cpu.icache.ReadReq_avg_mshr_miss_latency::total 83542.772861                       # average ReadReq mshr miss latency
system.cpu.icache.power_state.pwrStateResidencyTicks::UNDEFINED 114303454000                       # Cumulative time (in ticks) in various power states
system.cpu.icache.tags.tagsinuse           253.904053                       # Cycle average of tags in use
system.cpu.icache.tags.total_refs            43361263                       # Total number of references to valid blocks.
system.cpu.icache.tags.sampled_refs              1017                       # Sample count of references to valid blocks.
system.cpu.icache.tags.avg_refs          42636.443461                       # Average number of references to valid blocks.
system.cpu.icache.tags.warmup_cycle            107000                       # Cycle when the warmup percentage was hit.
system.cpu.icache.tags.occ_blocks::.cpu.inst   253.904053                       # Average occupied blocks per requestor
system.cpu.icache.tags.occ_percent::.cpu.inst     0.991813                       # Average percentage of cache occupancy
system.cpu.icache.tags.occ_percent::total     0.991813                       # Average percentage of cache occupancy
system.cpu.icache.tags.occ_task_id_blocks::1024          255                       # Occupied blocks per task id
system.cpu.icache.tags.age_task_id_blocks_1024::0           52                       # Occupied blocks per task id
system.cpu.icache.tags.age_task_id_blocks_1024::1          125                       # Occupied blocks per task id
system.cpu.icache.tags.age_task_id_blocks_1024::2            9                       # Occupied blocks per task id
system.cpu.icache.tags.age_task_id_blocks_1024::4           69                       # Occupied blocks per task id
system.cpu.icache.tags.occ_task_id_percent::1024     0.996094                       # Percentage of cache occupancy per task id
system.cpu.icache.tags.tag_accesses          86723543                       # Number of tag accesses
system.cpu.icache.tags.data_accesses         86723543                       # Number of data accesses
system.cpu.icache.tags.power_state.pwrStateResidencyTicks::UNDEFINED 114303454000                       # Cumulative time (in ticks) in various power states
system.cpu.interrupts.clk_domain.clock          16000                       # Clock period in ticks
system.cpu.itb.rdAccesses                           0                       # TLB accesses on read requests
system.cpu.itb.wrAccesses                    43361263                       # TLB accesses on write requests
system.cpu.itb.rdMisses                             0                       # TLB misses on read requests
system.cpu.itb.wrMisses                            59                       # TLB misses on write requests
system.cpu.itb.walker.power_state.pwrStateResidencyTicks::UNDEFINED 114303454000                       # Cumulative time (in ticks) in various power states
system.cpu.power_state.pwrStateResidencyTicks::ON 114303454000                       # Cumulative time (in ticks) in various power states
system.cpu.thread_0.numInsts                        0                       # Number of Instructions committed
system.cpu.thread_0.numOps                          0                       # Number of Ops committed
system.cpu.thread_0.numMemRefs                      0                       # Number of Memory References
system.l2bus.trans_dist::ReadResp              147193                       # Transaction distribution
system.l2bus.trans_dist::WritebackDirty        249008                       # Transaction distribution
system.l2bus.trans_dist::CleanEvict               866                       # Transaction distribution
system.l2bus.trans_dist::ReadExReq             103960                       # Transaction distribution
system.l2bus.trans_dist::ReadExResp            103960                       # Transaction distribution
system.l2bus.trans_dist::ReadSharedReq         147193                       # Transaction distribution
system.l2bus.pkt_count_system.cpu.icache.mem_side_port::system.l2cache.cpu_side_port         2796                       # Packet count per connected requestor and responder (bytes)
system.l2bus.pkt_count_system.cpu.dcache.mem_side_port::system.l2cache.cpu_side_port       749384                       # Packet count per connected requestor and responder (bytes)
system.l2bus.pkt_count::total                  752180                       # Packet count per connected requestor and responder (bytes)
system.l2bus.pkt_size_system.cpu.icache.mem_side_port::system.l2cache.cpu_side_port        65088                       # Cumulative packet size per connected requestor and responder (bytes)
system.l2bus.pkt_size_system.cpu.dcache.mem_side_port::system.l2cache.cpu_side_port     31945216                       # Cumulative packet size per connected requestor and responder (bytes)
system.l2bus.pkt_size::total                 32010304                       # Cumulative packet size per connected requestor and responder (bytes)
system.l2bus.snoops                                 0                       # Total snoops (count)
system.l2bus.snoopTraffic                           0                       # Total snoop traffic (bytes)
system.l2bus.snoop_fanout::samples             251153                       # Request fanout histogram
system.l2bus.snoop_fanout::mean                     0                       # Request fanout histogram
system.l2bus.snoop_fanout::stdev                    0                       # Request fanout histogram
system.l2bus.snoop_fanout::underflows               0      0.00%      0.00% # Request fanout histogram
system.l2bus.snoop_fanout::0                   251153    100.00%    100.00% # Request fanout histogram
system.l2bus.snoop_fanout::1                        0      0.00%    100.00% # Request fanout histogram
system.l2bus.snoop_fanout::2                        0      0.00%    100.00% # Request fanout histogram
system.l2bus.snoop_fanout::overflows                0      0.00%    100.00% # Request fanout histogram
system.l2bus.snoop_fanout::min_value                0                       # Request fanout histogram
system.l2bus.snoop_fanout::max_value                0                       # Request fanout histogram
system.l2bus.snoop_fanout::total               251153                       # Request fanout histogram
system.l2bus.power_state.pwrStateResidencyTicks::UNDEFINED 114303454000                       # Cumulative time (in ticks) in various power states
system.l2bus.reqLayer0.occupancy            999043000                       # Layer occupancy (ticks)
system.l2bus.reqLayer0.utilization                0.9                       # Layer utilization (%)
system.l2bus.respLayer0.occupancy             3051000                       # Layer occupancy (ticks)
system.l2bus.respLayer0.utilization               0.0                       # Layer utilization (%)
system.l2bus.respLayer1.occupancy           750408000                       # Layer occupancy (ticks)
system.l2bus.respLayer1.utilization               0.7                       # Layer utilization (%)
system.l2cache.demand_hits::.cpu.inst             226                       # number of demand (read+write) hits
system.l2cache.demand_hits::.cpu.data          241427                       # number of demand (read+write) hits
system.l2cache.demand_hits::total              241653                       # number of demand (read+write) hits
system.l2cache.overall_hits::.cpu.inst            226                       # number of overall hits
system.l2cache.overall_hits::.cpu.data         241427                       # number of overall hits
system.l2cache.overall_hits::total             241653                       # number of overall hits
system.l2cache.demand_misses::.cpu.inst           791                       # number of demand (read+write) misses
system.l2cache.demand_misses::.cpu.data          8709                       # number of demand (read+write) misses
system.l2cache.demand_misses::total              9500                       # number of demand (read+write) misses
system.l2cache.overall_misses::.cpu.inst          791                       # number of overall misses
system.l2cache.overall_misses::.cpu.data         8709                       # number of overall misses
system.l2cache.overall_misses::total             9500                       # number of overall misses
system.l2cache.demand_miss_latency::.cpu.inst     77161000                       # number of demand (read+write) miss cycles
system.l2cache.demand_miss_latency::.cpu.data    926500000                       # number of demand (read+write) miss cycles
system.l2cache.demand_miss_latency::total   1003661000                       # number of demand (read+write) miss cycles
system.l2cache.overall_miss_latency::.cpu.inst     77161000                       # number of overall miss cycles
system.l2cache.overall_miss_latency::.cpu.data    926500000                       # number of overall miss cycles
system.l2cache.overall_miss_latency::total   1003661000                       # number of overall miss cycles
system.l2cache.demand_accesses::.cpu.inst         1017                       # number of demand (read+write) accesses
system.l2cache.demand_accesses::.cpu.data       250136                       # number of demand (read+write) accesses
system.l2cache.demand_accesses::total          251153                       # number of demand (read+write) accesses
system.l2cache.overall_accesses::.cpu.inst         1017                       # number of overall (read+write) accesses
system.l2cache.overall_accesses::.cpu.data       250136                       # number of overall (read+write) accesses
system.l2cache.overall_accesses::total         251153                       # number of overall (read+write) accesses
system.l2cache.demand_miss_rate::.cpu.inst     0.777778                       # miss rate for demand accesses
system.l2cache.demand_miss_rate::.cpu.data     0.034817                       # miss rate for demand accesses
system.l2cache.demand_miss_rate::total       0.037826                       # miss rate for demand accesses
system.l2cache.overall_miss_rate::.cpu.inst     0.777778                       # miss rate for overall accesses
system.l2cache.overall_miss_rate::.cpu.data     0.034817                       # miss rate for overall accesses
system.l2cache.overall_miss_rate::total      0.037826                       # miss rate for overall accesses
system.l2cache.demand_avg_miss_latency::.cpu.inst 97548.672566                       # average overall miss latency
system.l2cache.demand_avg_miss_latency::.cpu.data 106384.200253                       # average overall miss latency
system.l2cache.demand_avg_miss_latency::total 105648.526316                       # average overall miss latency
system.l2cache.overall_avg_miss_latency::.cpu.inst 97548.672566                       # average overall miss latency
system.l2cache.overall_avg_miss_latency::.cpu.data 106384.200253                       # average overall miss latency
system.l2cache.overall_avg_miss_latency::total 105648.526316                       # average overall miss latency
system.l2cache.blocked_cycles::no_mshrs             0                       # number of cycles access was blocked
system.l2cache.blocked_cycles::no_targets            0                       # number of cycles access was blocked
system.l2cache.blocked::no_mshrs                    0                       # number of cycles access was blocked
system.l2cache.blocked::no_targets                  0                       # number of cycles access was blocked
system.l2cache.avg_blocked_cycles::no_mshrs          nan                       # average number of cycles each access was blocked
system.l2cache.avg_blocked_cycles::no_targets          nan                       # average number of cycles each access was blocked
system.l2cache.demand_mshr_misses::.cpu.inst          791                       # number of demand (read+write) MSHR misses
system.l2cache.demand_mshr_misses::.cpu.data         8709                       # number of demand (read+write) MSHR misses
system.l2cache.demand_mshr_misses::total         9500                       # number of demand (read+write) MSHR misses
system.l2cache.overall_mshr_misses::.cpu.inst          791                       # number of overall MSHR misses
system.l2cache.overall_mshr_misses::.cpu.data         8709                       # number of overall MSHR misses
system.l2cache.overall_mshr_misses::total         9500                       # number of overall MSHR misses
system.l2cache.demand_mshr_miss_latency::.cpu.inst     61341000                       # number of demand (read+write) MSHR miss cycles
system.l2cache.demand_mshr_miss_latency::.cpu.data    752320000                       # number of demand (read+write) MSHR miss cycles
system.l2cache.demand_mshr_miss_latency::total    813661000                       # number of demand (read+write) MSHR miss cycles
system.l2cache.overall_mshr_miss_latency::.cpu.inst     61341000                       # number of overall MSHR miss cycles
system.l2cache.overall_mshr_miss_latency::.cpu.data    752320000                       # number of overall MSHR miss cycles
system.l2cache.overall_mshr_miss_latency::total    813661000                       # number of overall MSHR miss cycles
system.l2cache.demand_mshr_miss_rate::.cpu.inst     0.777778                       # mshr miss rate for demand accesses
system.l2cache.demand_mshr_miss_rate::.cpu.data     0.034817                       # mshr miss rate for demand accesses
system.l2cache.demand_mshr_miss_rate::total     0.037826                       # mshr miss rate for demand accesses
system.l2cache.overall_mshr_miss_rate::.cpu.inst     0.777778                       # mshr miss rate for overall accesses
system.l2cache.overall_mshr_miss_rate::.cpu.data     0.034817                       # mshr miss rate for overall accesses
system.l2cache.overall_mshr_miss_rate::total     0.037826                       # mshr miss rate for overall accesses
system.l2cache.demand_avg_mshr_miss_latency::.cpu.inst 77548.672566                       # average overall mshr miss latency
system.l2cache.demand_avg_mshr_miss_latency::.cpu.data 86384.200253                       # average overall mshr miss latency
system.l2cache.demand_avg_mshr_miss_latency::total 85648.526316                       # average overall mshr miss latency
system.l2cache.overall_avg_mshr_miss_latency::.cpu.inst 77548.672566                       # average overall mshr miss latency
system.l2cache.overall_avg_mshr_miss_latency::.cpu.data 86384.200253                       # average overall mshr miss latency
system.l2cache.overall_avg_mshr_miss_latency::total 85648.526316                       # average overall mshr miss latency
system.l2cache.replacements                         0                       # number of replacements
system.l2cache.WritebackDirty_hits::.writebacks       249008                       # number of WritebackDirty hits
system.l2cache.WritebackDirty_hits::total       249008                       # number of WritebackDirty hits
system.l2cache.WritebackDirty_accesses::.writebacks       249008                       # number of WritebackDirty accesses(hits+misses)
system.l2cache.WritebackDirty_accesses::total       249008                       # number of WritebackDirty accesses(hits+misses)
system.l2cache.ReadExReq_hits::.cpu.data        95423                       # number of ReadExReq hits
system.l2cache.ReadExReq_hits::total            95423                       # number of ReadExReq hits
system.l2cache.ReadExReq_misses::.cpu.data         8537                       # number of ReadExReq misses
system.l2cache.ReadExReq_misses::total           8537                       # number of ReadExReq misses
system.l2cache.ReadExReq_miss_latency::.cpu.data    909002000                       # number of ReadExReq miss cycles
system.l2cache.ReadExReq_miss_latency::total    909002000                       # number of ReadExReq miss cycles
system.l2cache.ReadExReq_accesses::.cpu.data       103960                       # number of ReadExReq accesses(hits+misses)
system.l2cache.ReadExReq_accesses::total       103960                       # number of ReadExReq accesses(hits+misses)
system.l2cache.ReadExReq_miss_rate::.cpu.data     0.082118                       # miss rate for ReadExReq accesses
system.l2cache.ReadExReq_miss_rate::total     0.082118                       # miss rate for ReadExReq accesses
system.l2cache.ReadExReq_avg_miss_latency::.cpu.data 106477.919644                       # average ReadExReq miss latency
system.l2cache.ReadExReq_avg_miss_latency::total 106477.919644                       # average ReadExReq miss latency
system.l2cache.ReadExReq_mshr_misses::.cpu.data         8537                       # number of ReadExReq MSHR misses
system.l2cache.ReadExReq_mshr_misses::total         8537                       # number of ReadExReq MSHR misses
system.l2cache.ReadExReq_mshr_miss_latency::.cpu.data    738262000                       # number of ReadExReq MSHR miss cycles
system.l2cache.ReadExReq_mshr_miss_latency::total    738262000                       # number of ReadExReq MSHR miss cycles
system.l2cache.ReadExReq_mshr_miss_rate::.cpu.data     0.082118                       # mshr miss rate for ReadExReq accesses
system.l2cache.ReadExReq_mshr_miss_rate::total     0.082118                       # mshr miss rate for ReadExReq accesses
system.l2cache.ReadExReq_avg_mshr_miss_latency::.cpu.data 86477.919644                       # average ReadExReq mshr miss latency
system.l2cache.ReadExReq_avg_mshr_miss_latency::total 86477.919644                       # average ReadExReq mshr miss latency
system.l2cache.ReadSharedReq_hits::.cpu.inst          226                       # number of ReadSharedReq hits
system.l2cache.ReadSharedReq_hits::.cpu.data       146004                       # number of ReadSharedReq hits
system.l2cache.ReadSharedReq_hits::total       146230                       # number of ReadSharedReq hits
system.l2cache.ReadSharedReq_misses::.cpu.inst          791                       # number of ReadSharedReq misses
system.l2cache.ReadSharedReq_misses::.cpu.data          172                       # number of ReadSharedReq misses
system.l2cache.ReadSharedReq_misses::total          963                       # number of ReadSharedReq misses
system.l2cache.ReadSharedReq_miss_latency::.cpu.inst     77161000                       # number of ReadSharedReq miss cycles
system.l2cache.ReadSharedReq_miss_latency::.cpu.data     17498000                       # number of ReadSharedReq miss cycles
system.l2cache.ReadSharedReq_miss_latency::total     94659000                       # number of ReadSharedReq miss cycles
system.l2cache.ReadSharedReq_accesses::.cpu.inst         1017                       # number of ReadSharedReq accesses(hits+misses)
system.l2cache.ReadSharedReq_accesses::.cpu.data       146176                       # number of ReadSharedReq accesses(hits+misses)
system.l2cache.ReadSharedReq_accesses::total       147193                       # number of ReadSharedReq accesses(hits+misses)
system.l2cache.ReadSharedReq_miss_rate::.cpu.inst     0.777778                       # miss rate for ReadSharedReq accesses
system.l2cache.ReadSharedReq_miss_rate::.cpu.data     0.001177                       # miss rate for ReadSharedReq accesses
system.l2cache.ReadSharedReq_miss_rate::total     0.006542                       # miss rate for ReadSharedReq accesses
system.l2cache.ReadSharedReq_avg_miss_latency::.cpu.inst 97548.672566                       # average ReadSharedReq miss latency
system.l2cache.ReadSharedReq_avg_miss_latency::.cpu.data 101732.558140                       # average ReadSharedReq miss latency
system.l2cache.ReadSharedReq_avg_miss_latency::total 98295.950156                       # average ReadSharedReq miss latency
system.l2cache.ReadSharedReq_mshr_misses::.cpu.inst          791                       # number of ReadSharedReq MSHR misses
system.l2cache.ReadSharedReq_mshr_misses::.cpu.data          172                       # number of ReadSharedReq MSHR misses
system.l2cache.ReadSharedReq_mshr_misses::total          963                       # number of ReadSharedReq MSHR misses
system.l2cache.ReadSharedReq_mshr_miss_latency::.cpu.inst     61341000                       # number of ReadSharedReq MSHR miss cycles
system.l2cache.ReadSharedReq_mshr_miss_latency::.cpu.data     14058000                       # number of ReadSharedReq MSHR miss cycles
system.l2cache.ReadSharedReq_mshr_miss_latency::total     75399000                       # number of ReadSharedReq MSHR miss cycles
system.l2cache.ReadSharedReq_mshr_miss_rate::.cpu.inst     0.777778                       # mshr miss rate for ReadSharedReq accesses
system.l2cache.ReadSharedReq_mshr_miss_rate::.cpu.data     0.001177                       # mshr miss rate for ReadSharedReq accesses
system.l2cache.ReadSharedReq_mshr_miss_rate::total     0.006542                       # mshr miss rate for ReadSharedReq accesses
system.l2cache.ReadSharedReq_avg_mshr_miss_latency::.cpu.inst 77548.672566                       # average ReadSharedReq mshr miss latency
system.l2cache.ReadSharedReq_avg_mshr_miss_latency::.cpu.data 81732.558140                       # average ReadSharedReq mshr miss latency
system.l2cache.ReadSharedReq_avg_mshr_miss_latency::total 78295.950156                       # average ReadSharedReq mshr miss latency
system.l2cache.power_state.pwrStateResidencyTicks::UNDEFINED 114303454000                       # Cumulative time (in ticks) in various power states
system.l2cache.replacement_policy.totalBypasses            0                       # Total number of cache bypasses
system.l2cache.replacement_policy.effectiveBypasses            0                       # Bypasses that correctly skipped non-reused blocks
system.l2cache.replacement_policy.ineffectiveBypasses            0                       # Bypasses that incorrectly skipped requested blocks
system.l2cache.replacement_policy.virtualEffectiveBypasses            0                       # Virtual bypasses correctly predicting non-reused blocks
system.l2cache.replacement_policy.virtualIneffectiveBypasses          449                       # Virtual bypasses incorrectly predicting requested blocks
system.l2cache.tags.tagsinuse             6492.564685                       # Cycle average of tags in use
system.l2cache.tags.total_refs                 501027                       # Total number of references to valid blocks.
system.l2cache.tags.sampled_refs                 9500                       # Sample count of references to valid blocks.
system.l2cache.tags.avg_refs                52.739684                       # Average number of references to valid blocks.
system.l2cache.tags.warmup_cycle                86000                       # Cycle when the warmup percentage was hit.
system.l2cache.tags.occ_blocks::.cpu.inst   555.308064                       # Average occupied blocks per requestor
system.l2cache.tags.occ_blocks::.cpu.data  5937.256621                       # Average occupied blocks per requestor
system.l2cache.tags.occ_percent::.cpu.inst     0.033893                       # Average percentage of cache occupancy
system.l2cache.tags.occ_percent::.cpu.data     0.362381                       # Average percentage of cache occupancy
system.l2cache.tags.occ_percent::total       0.396275                       # Average percentage of cache occupancy
system.l2cache.tags.occ_task_id_blocks::1024         9500                       # Occupied blocks per task id
system.l2cache.tags.age_task_id_blocks_1024::0           61                       # Occupied blocks per task id
system.l2cache.tags.age_task_id_blocks_1024::1          191                       # Occupied blocks per task id
system.l2cache.tags.age_task_id_blocks_1024::2           25                       # Occupied blocks per task id
system.l2cache.tags.age_task_id_blocks_1024::3            3                       # Occupied blocks per task id
system.l2cache.tags.age_task_id_blocks_1024::4         9220                       # Occupied blocks per task id
system.l2cache.tags.occ_task_id_percent::1024     0.579834                       # Percentage of cache occupancy per task id
system.l2cache.tags.tag_accesses              4017716                       # Number of tag accesses
system.l2cache.tags.data_accesses             4017716                       # Number of data accesses
system.l2cache.tags.power_state.pwrStateResidencyTicks::UNDEFINED 114303454000                       # Cumulative time (in ticks) in various power states
system.mem_ctrl.avgPriority_.cpu.inst::samples       791.00                       # Average QoS priority value for accepted requests
system.mem_ctrl.avgPriority_.cpu.data::samples      8709.00                       # Average QoS priority value for accepted requests
system.mem_ctrl.priorityMinLatency       0.000000018750                       # per QoS priority minimum request to response latency (s)
system.mem_ctrl.priorityMaxLatency       0.000000578000                       # per QoS priority maximum request to response latency (s)
system.mem_ctrl.numReadWriteTurnArounds             0                       # Number of turnarounds from READ to WRITE
system.mem_ctrl.numWriteReadTurnArounds             0                       # Number of turnarounds from WRITE to READ
system.mem_ctrl.numStayReadState                48360                       # Number of times bus staying in READ state
system.mem_ctrl.numStayWriteState                   0                       # Number of times bus staying in WRITE state
system.mem_ctrl.readReqs                         9500                       # Number of read requests accepted
system.mem_ctrl.writeReqs                           0                       # Number of write requests accepted
system.mem_ctrl.readBursts                       9500                       # Number of controller read bursts, including those serviced by the write queue
system.mem_ctrl.writeBursts                         0                       # Number of controller write bursts, including those merged in the write queue
system.mem_ctrl.servicedByWrQ                       0                       # Number of controller read bursts serviced by the write queue
system.mem_ctrl.mergedWrBursts                      0                       # Number of controller write bursts merged with an existing one
system.mem_ctrl.neitherReadNorWriteReqs             0                       # Number of requests that are neither read nor write
system.mem_ctrl.avgRdQLen                        1.00                       # Average read queue length when enqueuing
system.mem_ctrl.avgWrQLen                        0.00                       # Average write queue length when enqueuing
system.mem_ctrl.numRdRetry                          0                       # Number of times read queue was full causing retry
system.mem_ctrl.numWrRetry                          0                       # Number of times write queue was full causing retry
system.mem_ctrl.readPktSize::0                      0                       # Read request sizes (log2)
system.mem_ctrl.readPktSize::1                      0                       # Read request sizes (log2)
system.mem_ctrl.readPktSize::2                      0                       # Read request sizes (log2)
system.mem_ctrl.readPktSize::3                      0                       # Read request sizes (log2)
system.mem_ctrl.readPktSize::4                      0                       # Read request sizes (log2)
system.mem_ctrl.readPktSize::5                      0                       # Read request sizes (log2)
system.mem_ctrl.readPktSize::6                   9500                       # Read request sizes (log2)
system.mem_ctrl.writePktSize::0                     0                       # Write request sizes (log2)
system.mem_ctrl.writePktSize::1                     0                       # Write request sizes (log2)
system.mem_ctrl.writePktSize::2                     0                       # Write request sizes (log2)
system.mem_ctrl.writePktSize::3                     0                       # Write request sizes (log2)
system.mem_ctrl.writePktSize::4                     0                       # Write request sizes (log2)
system.mem_ctrl.writePktSize::5                     0                       # Write request sizes (log2)
system.mem_ctrl.writePktSize::6                     0                       # Write request sizes (log2)
system.mem_ctrl.rdQLenPdf::0                     9499                       # What read queue length does an incoming req see
system.mem_ctrl.rdQLenPdf::1                        1                       # What read queue length does an incoming req see
system.mem_ctrl.rdQLenPdf::2                        0                       # What read queue length does an incoming req see
system.mem_ctrl.rdQLenPdf::3                        0                       # What read queue length does an incoming req see
system.mem_ctrl.rdQLenPdf::4                        0                       # What read queue length does an incoming req see
system.mem_ctrl.rdQLenPdf::5                        0                       # What read queue length does an incoming req see
system.mem_ctrl.rdQLenPdf::6                        0                       # What read queue length does an incoming req see
system.mem_ctrl.rdQLenPdf::7                        0                       # What read queue length does an incoming req see
system.mem_ctrl.rdQLenPdf::8                        0                       # What read queue length does an incoming req see
system.mem_ctrl.rdQLenPdf::9                        0                       # What read queue length does an incoming req see
system.mem_ctrl.rdQLenPdf::10                       0                       # What read queue length does an incoming req see
system.mem_ctrl.rdQLenPdf::11                       0                       # What read queue length does an incoming req see
system.mem_ctrl.rdQLenPdf::12                       0                       # What read queue length does an incoming req see
system.mem_ctrl.rdQLenPdf::13                       0                       # What read queue length does an incoming req see
system.mem_ctrl.rdQLenPdf::14                       0                       # What read queue length does an incoming req see
system.mem_ctrl.rdQLenPdf::15                       0                       # What read queue length does an incoming req see
system.mem_ctrl.rdQLenPdf::16                       0                       # What read queue length does an incoming req see
system.mem_ctrl.rdQLenPdf::17                       0                       # What read queue length does an incoming req see
system.mem_ctrl.rdQLenPdf::18                       0                       # What read queue length does an incoming req see
system.mem_ctrl.rdQLenPdf::19                       0                       # What read queue length does an incoming req see
system.mem_ctrl.rdQLenPdf::20                       0                       # What read queue length does an incoming req see
system.mem_ctrl.rdQLenPdf::21                       0                       # What read queue length does an incoming req see
system.mem_ctrl.rdQLenPdf::22                       0                       # What read queue length does an incoming req see
system.mem_ctrl.rdQLenPdf::23                       0                       # What read queue length does an incoming req see
system.mem_ctrl.rdQLenPdf::24                       0                       # What read queue length does an incoming req see
system.mem_ctrl.rdQLenPdf::25                       0                       # What read queue length does an incoming req see
system.mem_ctrl.rdQLenPdf::26                       0                       # What read queue length does an incoming req see
system.mem_ctrl.rdQLenPdf::27                       0                       # What read queue length does an incoming req see
system.mem_ctrl.rdQLenPdf::28                       0                       # What read queue length does an incoming req see
system.mem_ctrl.rdQLenPdf::29                       0                       # What read queue length does an incoming req see
system.mem_ctrl.rdQLenPdf::30                       0                       # What read queue length does an incoming req see
system.mem_ctrl.rdQLenPdf::31                       0                       # What read queue length does an incoming req see
system.mem_ctrl.wrQLenPdf::0                        0                       # What write queue length does an incoming req see
system.mem_ctrl.wrQLenPdf::1                        0                       # What write queue length does an incoming req see
system.mem_ctrl.wrQLenPdf::2                        0                       # What write queue length does an incoming req see
system.mem_ctrl.wrQLenPdf::3                        0                       # What write queue length does an incoming req see
system.mem_ctrl.wrQLenPdf::4                        0                       # What write queue length does an incoming req see
system.mem_ctrl.wrQLenPdf::5                        0                       # What write queue length does an incoming req see
system.mem_ctrl.wrQLenPdf::6                        0                       # What write queue length does an incoming req see
system.mem_ctrl.wrQLenPdf::7                        0                       # What write queue length does an incoming req see
system.mem_ctrl.wrQLenPdf::8                        0                       # What write queue length does an incoming req see
system.mem_ctrl.wrQLenPdf::9                        0                       # What write queue length does an incoming req see
system.mem_ctrl.wrQLenPdf::10                       0                       # What write queue length does an incoming req see
system.mem_ctrl.wrQLenPdf::11                       0                       # What write queue length does an incoming req see
system.mem_ctrl.wrQLenPdf::12                       0                       # What write queue length does an incoming req see
system.mem_ctrl.wrQLenPdf::13                       0                       # What write queue length does an incoming req see
system.mem_ctrl.wrQLenPdf::14                       0                       # What write queue length does an incoming req see
system.mem_ctrl.wrQLenPdf::15                       0                       # What write queue length does an incoming req see
system.mem_ctrl.wrQLenPdf::16                       0                       # What write queue length does an incoming req see
system.mem_ctrl.wrQLenPdf::17                       0                       # What write queue length does an incoming req see
system.mem_ctrl.wrQLenPdf::18                       0                       # What write queue length does an incoming req see
system.mem_ctrl.wrQLenPdf::19                       0                       # What write queue length does an incoming req see
system.mem_ctrl.wrQLenPdf::20                       0                       # What write queue length does an incoming req see
system.mem_ctrl.wrQLenPdf::21                       0                       # What write queue length does an incoming req see
system.mem_ctrl.wrQLenPdf::22                       0                       # What write queue length does an incoming req see
system.mem_ctrl.wrQLenPdf::23                       0                       # What write queue length does an incoming req see
system.mem_ctrl.wrQLenPdf::24                       0                       # What write queue length does an incoming req see
system.mem_ctrl.wrQLenPdf::25                       0                       # What write queue length does an incoming req see
system.mem_ctrl.wrQLenPdf::26                       0                       # What write queue length does an incoming req see
system.mem_ctrl.wrQLenPdf::27                       0                       # What write queue length does an incoming req see
system.mem_ctrl.wrQLenPdf::28                       0                       # What write queue length does an incoming req see
system.mem_ctrl.wrQLenPdf::29                       0                       # What write queue length does an incoming req see
system.mem_ctrl.wrQLenPdf::30                       0                       # What write queue length does an incoming req see
system.mem_ctrl.wrQLenPdf::31                       0                       # What write queue length does an incoming req see
system.mem_ctrl.wrQLenPdf::32                       0                       # What write queue length does an incoming req see
system.mem_ctrl.wrQLenPdf::33                       0                       # What write queue length does an incoming req see
system.mem_ctrl.wrQLenPdf::34                       0                       # What write queue length does an incoming req see
system.mem_ctrl.wrQLenPdf::35                       0                       # What write queue length does an incoming req see
system.mem_ctrl.wrQLenPdf::36                       0                       # What write queue length does an incoming req see
system.mem_ctrl.wrQLenPdf::37                       0                       # What write queue length does an incoming req see
system.mem_ctrl.wrQLenPdf::38                       0                       # What write queue length does an incoming req see
system.mem_ctrl.wrQLenPdf::39                       0                       # What write queue length does an incoming req see
system.mem_ctrl.wrQLenPdf::40                       0                       # What write queue length does an incoming req see
system.mem_ctrl.wrQLenPdf::41                       0                       # What write queue length does an incoming req see
system.mem_ctrl.wrQLenPdf::42                       0                       # What write queue length does an incoming req see
system.mem_ctrl.wrQLenPdf::43                       0                       # What write queue length does an incoming req see
system.mem_ctrl.wrQLenPdf::44                       0                       # What write queue length does an incoming req see
system.mem_ctrl.wrQLenPdf::45                       0                       # What write queue length does an incoming req see
system.mem_ctrl.wrQLenPdf::46                       0                       # What write queue length does an incoming req see
system.mem_ctrl.wrQLenPdf::47                       0                       # What write queue length does an incoming req see
system.mem_ctrl.wrQLenPdf::48                       0                       # What write queue length does an incoming req see
system.mem_ctrl.wrQLenPdf::49                       0                       # What write queue length does an incoming req see
system.mem_ctrl.wrQLenPdf::50                       0                       # What write queue length does an incoming req see
system.mem_ctrl.wrQLenPdf::51                       0                       # What write queue length does an incoming req see
system.mem_ctrl.wrQLenPdf::52                       0                       # What write queue length does an incoming req see
system.mem_ctrl.wrQLenPdf::53                       0                       # What write queue length does an incoming req see
system.mem_ctrl.wrQLenPdf::54                       0                       # What write queue length does an incoming req see
system.mem_ctrl.wrQLenPdf::55                       0                       # What write queue length does an incoming req see
system.mem_ctrl.wrQLenPdf::56                       0                       # What write queue length does an incoming req see
system.mem_ctrl.wrQLenPdf::57                       0                       # What write queue length does an incoming req see
system.mem_ctrl.wrQLenPdf::58                       0                       # What write queue length does an incoming req see
system.mem_ctrl.wrQLenPdf::59                       0                       # What write queue length does an incoming req see
system.mem_ctrl.wrQLenPdf::60                       0                       # What write queue length does an incoming req see
system.mem_ctrl.wrQLenPdf::61                       0                       # What write queue length does an incoming req see
system.mem_ctrl.wrQLenPdf::62                       0                       # What write queue length does an incoming req see
system.mem_ctrl.wrQLenPdf::63                       0                       # What write queue length does an incoming req see
system.mem_ctrl.bytesReadWrQ                        0                       # Total number of bytes read from write queue
system.mem_ctrl.bytesReadSys                   608000                       # Total read bytes from the system interface side
system.mem_ctrl.bytesWrittenSys                     0                       # Total written bytes from the system interface side
system.mem_ctrl.avgRdBWSys                       5.32                       # Average system read bandwidth in MiByte/s
system.mem_ctrl.avgWrBWSys                       0.00                       # Average system write bandwidth in MiByte/s
system.mem_ctrl.totGap                   114303323000                       # Total gap between requests
system.mem_ctrl.avgGap                    12031928.74                       # Average gap between requests
system.mem_ctrl.requestorReadBytes::.cpu.inst        50624                       # Per-requestor bytes read from memory
system.mem_ctrl.requestorReadBytes::.cpu.data       557376                       # Per-requestor bytes read from memory
system.mem_ctrl.requestorReadRate::.cpu.inst 442891.253312432731                       # Per-requestor bytes read from memory rate (Bytes/sec)
system.mem_ctrl.requestorReadRate::.cpu.data 4876283.091147884727                       # Per-requestor bytes read from memory rate (Bytes/sec)
system.mem_ctrl.requestorReadAccesses::.cpu.inst          791                       # Per-requestor read serviced memory accesses
system.mem_ctrl.requestorReadAccesses::.cpu.data         8709                       # Per-requestor read serviced memory accesses
system.mem_ctrl.requestorReadTotalLat::.cpu.inst     20746500                       # Per-requestor read total memory access latency
system.mem_ctrl.requestorReadTotalLat::.cpu.data    303908500                       # Per-requestor read total memory access latency
system.mem_ctrl.requestorReadAvgLat::.cpu.inst     26228.19                       # Per-requestor read average memory access latency
system.mem_ctrl.requestorReadAvgLat::.cpu.data     34895.91                       # Per-requestor read average memory access latency
system.mem_ctrl.dram.bytes_read::.cpu.inst        50624                       # Number of bytes read from this memory
system.mem_ctrl.dram.bytes_read::.cpu.data       557376                       # Number of bytes read from this memory
system.mem_ctrl.dram.bytes_read::total         608000                       # Number of bytes read from this memory
system.mem_ctrl.dram.bytes_inst_read::.cpu.inst        50624                       # Number of instructions bytes read from this memory
system.mem_ctrl.dram.bytes_inst_read::total        50624                       # Number of instructions bytes read from this memory
system.mem_ctrl.dram.num_reads::.cpu.inst          791                       # Number of read requests responded to by this memory
system.mem_ctrl.dram.num_reads::.cpu.data         8709                       # Number of read requests responded to by this memory
system.mem_ctrl.dram.num_reads::total            9500                       # Number of read requests responded to by this memory
system.mem_ctrl.dram.bw_read::.cpu.inst        442891                       # Total read bandwidth from this memory (bytes/s)
system.mem_ctrl.dram.bw_read::.cpu.data       4876283                       # Total read bandwidth from this memory (bytes/s)
system.mem_ctrl.dram.bw_read::total           5319174                       # Total read bandwidth from this memory (bytes/s)
system.mem_ctrl.dram.bw_inst_read::.cpu.inst       442891                       # Instruction read bandwidth from this memory (bytes/s)
system.mem_ctrl.dram.bw_inst_read::total       442891                       # Instruction read bandwidth from this memory (bytes/s)
system.mem_ctrl.dram.bw_total::.cpu.inst       442891                       # Total bandwidth to/from this memory (bytes/s)
system.mem_ctrl.dram.bw_total::.cpu.data      4876283                       # Total bandwidth to/from this memory (bytes/s)
system.mem_ctrl.dram.bw_total::total          5319174                       # Total bandwidth to/from this memory (bytes/s)
system.mem_ctrl.dram.readBursts                  9500                       # Number of DRAM read bursts
system.mem_ctrl.dram.writeBursts                    0                       # Number of DRAM write bursts
system.mem_ctrl.dram.perBankRdBursts::0           697                       # Per bank write bursts
system.mem_ctrl.dram.perBankRdBursts::1           768                       # Per bank write bursts
system.mem_ctrl.dram.perBankRdBursts::2           660                       # Per bank write bursts
system.mem_ctrl.dram.perBankRdBursts::3           604                       # Per bank write bursts
system.mem_ctrl.dram.perBankRdBursts::4           530                       # Per bank write bursts
system.mem_ctrl.dram.perBankRdBursts::5           604                       # Per bank write bursts
system.mem_ctrl.dram.perBankRdBursts::6           595                       # Per bank write bursts
system.mem_ctrl.dram.perBankRdBursts::7           544                       # Per bank write bursts
system.mem_ctrl.dram.perBankRdBursts::8           545                       # Per bank write bursts
system.mem_ctrl.dram.perBankRdBursts::9           534                       # Per bank write bursts
system.mem_ctrl.dram.perBankRdBursts::10          518                       # Per bank write bursts
system.mem_ctrl.dram.perBankRdBursts::11          612                       # Per bank write bursts
system.mem_ctrl.dram.perBankRdBursts::12          571                       # Per bank write bursts
system.mem_ctrl.dram.perBankRdBursts::13          558                       # Per bank write bursts
system.mem_ctrl.dram.perBankRdBursts::14          570                       # Per bank write bursts
system.mem_ctrl.dram.perBankRdBursts::15          590                       # Per bank write bursts
system.mem_ctrl.dram.perBankWrBursts::0             0                       # Per bank write bursts
system.mem_ctrl.dram.perBankWrBursts::1             0                       # Per bank write bursts
system.mem_ctrl.dram.perBankWrBursts::2             0                       # Per bank write bursts
system.mem_ctrl.dram.perBankWrBursts::3             0                       # Per bank write bursts
system.mem_ctrl.dram.perBankWrBursts::4             0                       # Per bank write bursts
system.mem_ctrl.dram.perBankWrBursts::5             0                       # Per bank write bursts
system.mem_ctrl.dram.perBankWrBursts::6             0                       # Per bank write bursts
system.mem_ctrl.dram.perBankWrBursts::7             0                       # Per bank write bursts
system.mem_ctrl.dram.perBankWrBursts::8             0                       # Per bank write bursts
system.mem_ctrl.dram.perBankWrBursts::9             0                       # Per bank write bursts
system.mem_ctrl.dram.perBankWrBursts::10            0                       # Per bank write bursts
system.mem_ctrl.dram.perBankWrBursts::11            0                       # Per bank write bursts
system.mem_ctrl.dram.perBankWrBursts::12            0                       # Per bank write bursts
system.mem_ctrl.dram.perBankWrBursts::13            0                       # Per bank write bursts
system.mem_ctrl.dram.perBankWrBursts::14            0                       # Per bank write bursts
system.mem_ctrl.dram.perBankWrBursts::15            0                       # Per bank write bursts
system.mem_ctrl.dram.totQLat                146530000                       # Total ticks spent queuing
system.mem_ctrl.dram.totBusLat               47500000                       # Total ticks spent in databus transfers
system.mem_ctrl.dram.totMemAccLat           324655000                       # Total ticks spent from burst creation until serviced by the DRAM
system.mem_ctrl.dram.avgQLat                 15424.21                       # Average queueing delay per DRAM burst
system.mem_ctrl.dram.avgBusLat                5000.00                       # Average bus latency per DRAM burst
system.mem_ctrl.dram.avgMemAccLat            34174.21                       # Average memory access latency per DRAM burst
system.mem_ctrl.dram.readRowHits                 1549                       # Number of row buffer hits during reads
system.mem_ctrl.dram.writeRowHits                   0                       # Number of row buffer hits during writes
system.mem_ctrl.dram.readRowHitRate             16.31                       # Row buffer hit rate for reads
system.mem_ctrl.dram.writeRowHitRate              nan                       # Row buffer hit rate for writes
system.mem_ctrl.dram.bytesPerActivate::samples         7947                       # Bytes accessed per row activation
system.mem_ctrl.dram.bytesPerActivate::mean    76.450484                       # Bytes accessed per row activation
system.mem_ctrl.dram.bytesPerActivate::gmean    69.654211                       # Bytes accessed per row activation
system.mem_ctrl.dram.bytesPerActivate::stdev    69.769607                       # Bytes accessed per row activation
system.mem_ctrl.dram.bytesPerActivate::0-127         7254     91.28%     91.28% # Bytes accessed per row activation
system.mem_ctrl.dram.bytesPerActivate::128-255          573      7.21%     98.49% # Bytes accessed per row activation
system.mem_ctrl.dram.bytesPerActivate::256-383           46      0.58%     99.07% # Bytes accessed per row activation
system.mem_ctrl.dram.bytesPerActivate::384-511           22      0.28%     99.35% # Bytes accessed per row activation
system.mem_ctrl.dram.bytesPerActivate::512-639           15      0.19%     99.53% # Bytes accessed per row activation
system.mem_ctrl.dram.bytesPerActivate::640-767            7      0.09%     99.62% # Bytes accessed per row activation
system.mem_ctrl.dram.bytesPerActivate::768-895            3      0.04%     99.66% # Bytes accessed per row activation
system.mem_ctrl.dram.bytesPerActivate::896-1023            3      0.04%     99.70% # Bytes accessed per row activation
system.mem_ctrl.dram.bytesPerActivate::1024-1151           24      0.30%    100.00% # Bytes accessed per row activation
system.mem_ctrl.dram.bytesPerActivate::total         7947                       # Bytes accessed per row activation
system.mem_ctrl.dram.bytesRead                 608000                       # Total number of bytes read from DRAM
system.mem_ctrl.dram.bytesWritten                   0                       # Total number of bytes written to DRAM
system.mem_ctrl.dram.avgRdBW                 5.319174                       # Average DRAM read bandwidth in MiBytes/s
system.mem_ctrl.dram.avgWrBW                        0                       # Average DRAM write bandwidth in MiBytes/s
system.mem_ctrl.dram.peakBW                  12800.00                       # Theoretical peak bandwidth in MiByte/s
system.mem_ctrl.dram.busUtil                     0.04                       # Data bus utilization in percentage
system.mem_ctrl.dram.busUtilRead                 0.04                       # Data bus utilization in percentage for reads
system.mem_ctrl.dram.busUtilWrite                0.00                       # Data bus utilization in percentage for writes
system.mem_ctrl.dram.pageHitRate                16.31                       # Row buffer hit rate, read and write combined
system.mem_ctrl.dram.power_state.pwrStateResidencyTicks::UNDEFINED 114303454000                       # Cumulative time (in ticks) in various power states
system.mem_ctrl.dram.rank0.actEnergy         28717080                       # Energy for activate commands per rank (pJ)
system.mem_ctrl.dram.rank0.preEnergy         15259695                       # Energy for precharge commands per rank (pJ)
system.mem_ctrl.dram.rank0.readEnergy        35714280                       # Energy for read commands per rank (pJ)
system.mem_ctrl.dram.rank0.writeEnergy              0                       # Energy for write commands per rank (pJ)
system.mem_ctrl.dram.rank0.refreshEnergy 9022915200.000002                       # Energy for refresh commands per rank (pJ)
system.mem_ctrl.dram.rank0.actBackEnergy   6371153340                       # Energy for active background per rank (pJ)
system.mem_ctrl.dram.rank0.preBackEnergy  38527344960                       # Energy for precharge background per rank (pJ)
system.mem_ctrl.dram.rank0.actPowerDownEnergy            0                       # Energy for active power-down per rank (pJ)
system.mem_ctrl.dram.rank0.prePowerDownEnergy            0                       # Energy for precharge power-down per rank (pJ)
system.mem_ctrl.dram.rank0.selfRefreshEnergy            0                       # Energy for self refresh per rank (pJ)
system.mem_ctrl.dram.rank0.totalEnergy    54001104555                       # Total energy per rank (pJ)
system.mem_ctrl.dram.rank0.averagePower    472.436332                       # Core power per rank (mW)
system.mem_ctrl.dram.rank0.totalIdleTime            0                       # Total Idle time Per DRAM Rank
system.mem_ctrl.dram.rank0.pwrStateTime::IDLE 100094285250                       # Time in different power states
system.mem_ctrl.dram.rank0.pwrStateTime::REF   3816800000                       # Time in different power states
system.mem_ctrl.dram.rank0.pwrStateTime::SREF            0                       # Time in different power states
system.mem_ctrl.dram.rank0.pwrStateTime::PRE_PDN            0                       # Time in different power states
system.mem_ctrl.dram.rank0.pwrStateTime::ACT  10392368750                       # Time in different power states
system.mem_ctrl.dram.rank0.pwrStateTime::ACT_PDN            0                       # Time in different power states
system.mem_ctrl.dram.rank1.actEnergy         28053060                       # Energy for activate commands per rank (pJ)
system.mem_ctrl.dram.rank1.preEnergy         14899170                       # Energy for precharge commands per rank (pJ)
system.mem_ctrl.dram.rank1.readEnergy        32115720                       # Energy for read commands per rank (pJ)
system.mem_ctrl.dram.rank1.writeEnergy              0                       # Energy for write commands per rank (pJ)
system.mem_ctrl.dram.rank1.refreshEnergy 9022915200.000002                       # Energy for refresh commands per rank (pJ)
system.mem_ctrl.dram.rank1.actBackEnergy   6360879660                       # Energy for active background per rank (pJ)
system.mem_ctrl.dram.rank1.preBackEnergy  38535996480                       # Energy for precharge background per rank (pJ)
system.mem_ctrl.dram.rank1.actPowerDownEnergy            0                       # Energy for active power-down per rank (pJ)
system.mem_ctrl.dram.rank1.prePowerDownEnergy            0                       # Energy for precharge power-down per rank (pJ)
system.mem_ctrl.dram.rank1.selfRefreshEnergy            0                       # Energy for self refresh per rank (pJ)
system.mem_ctrl.dram.rank1.totalEnergy    53994859290                       # Total energy per rank (pJ)
system.mem_ctrl.dram.rank1.averagePower    472.381695                       # Core power per rank (mW)
system.mem_ctrl.dram.rank1.totalIdleTime            0                       # Total Idle time Per DRAM Rank
system.mem_ctrl.dram.rank1.pwrStateTime::IDLE 100117124250                       # Time in different power states
system.mem_ctrl.dram.rank1.pwrStateTime::REF   3816800000                       # Time in different power states
system.mem_ctrl.dram.rank1.pwrStateTime::SREF            0                       # Time in different power states
system.mem_ctrl.dram.rank1.pwrStateTime::PRE_PDN            0                       # Time in different power states
system.mem_ctrl.dram.rank1.pwrStateTime::ACT  10369529750                       # Time in different power states
system.mem_ctrl.dram.rank1.pwrStateTime::ACT_PDN            0                       # Time in different power states
system.mem_ctrl.power_state.pwrStateResidencyTicks::UNDEFINED 114303454000                       # Cumulative time (in ticks) in various power states
system.membus.trans_dist::ReadResp                963                       # Transaction distribution
system.membus.trans_dist::ReadExReq              8537                       # Transaction distribution
system.membus.trans_dist::ReadExResp             8537                       # Transaction distribution
system.membus.trans_dist::ReadSharedReq           963                       # Transaction distribution
system.membus.pkt_count_system.l2cache.mem_side_port::system.mem_ctrl.port        19000                       # Packet count per connected requestor and responder (bytes)
system.membus.pkt_count_system.l2cache.mem_side_port::total        19000                       # Packet count per connected requestor and responder (bytes)
system.membus.pkt_count::total                  19000                       # Packet count per connected requestor and responder (bytes)
system.membus.pkt_size_system.l2cache.mem_side_port::system.mem_ctrl.port       608000                       # Cumulative packet size per connected requestor and responder (bytes)
system.membus.pkt_size_system.l2cache.mem_side_port::total       608000                       # Cumulative packet size per connected requestor and responder (bytes)
system.membus.pkt_size::total                  608000                       # Cumulative packet size per connected requestor and responder (bytes)
system.membus.snoops                                0                       # Total snoops (count)
system.membus.snoopTraffic                          0                       # Total snoop traffic (bytes)
system.membus.snoop_fanout::samples              9500                       # Request fanout histogram
system.membus.snoop_fanout::mean                    0                       # Request fanout histogram
system.membus.snoop_fanout::stdev                   0                       # Request fanout histogram
system.membus.snoop_fanout::underflows              0      0.00%      0.00% # Request fanout histogram
system.membus.snoop_fanout::0                    9500    100.00%    100.00% # Request fanout histogram
system.membus.snoop_fanout::1                       0      0.00%    100.00% # Request fanout histogram
system.membus.snoop_fanout::overflows               0      0.00%    100.00% # Request fanout histogram
system.membus.snoop_fanout::min_value               0                       # Request fanout histogram
system.membus.snoop_fanout::max_value               0                       # Request fanout histogram
system.membus.snoop_fanout::total                9500                       # Request fanout histogram
system.membus.power_state.pwrStateResidencyTicks::UNDEFINED 114303454000                       # Cumulative time (in ticks) in various power states
system.membus.reqLayer2.occupancy             9500000                       # Layer occupancy (ticks)
system.membus.reqLayer2.utilization               0.0                       # Layer utilization (%)
system.membus.respLayer0.occupancy           52005500                       # Layer occupancy (ticks)
system.membus.respLayer0.utilization              0.0                       # Layer utilization (%)

---------- End Simulation Statistics   ----------
