Global frequency set at 1000000000000 ticks per second
Redirecting stdout to /data/home/nta52/gem5-adaptive-bypass-cache-project/slurm_evaluation/results/X86/cg_eval/cg.S/1MB/8w/AdaptiveBypassRP/0/simout
Redirecting stderr to /data/home/nta52/gem5-adaptive-bypass-cache-project/slurm_evaluation/results/X86/cg_eval/cg.S/1MB/8w/AdaptiveBypassRP/0/simerr
gem5 Simulator System.  http://gem5.org
gem5 is copyrighted software; use the --copyright option for details.

gem5 version 20.1.0.2
gem5 compiled Mar 25 2026 23:23:37
gem5 started Mar 26 2026 01:23:24
gem5 executing on ARCH-750, pid 3483756
command line: /data/home/nta52/gem5-adaptive-bypass-cache-project/build/X86/gem5.opt -re --outdir=/data/home/nta52/gem5-adaptive-bypass-cache-project/slurm_evaluation/results/X86/cg_eval/cg.S/1MB/8w/AdaptiveBypassRP/0 /data/home/nta52/gem5-adaptive-bypass-cache-project/configs/evaluation/run_benchmark.py --l2_size 1MB --l2_assoc 8 --l2_initial_bypass_probability 0 --l2_rp AdaptiveBypassRP /data/home/nta52/gem5-adaptive-bypass-cache-project/NPB3.3.1/NPB3.3-SER/bin/cg.S.x

info: Standard input is not a terminal, disabling listeners.
Beginning simulation with L2=1MB (8-way), RP=AdaptiveBypassRP (InitProb=0)


 NAS Parallel Benchmarks (NPB3.3-SER) - CG Benchmark

 Size:        1400
 Iterations:    15

 Initialization time =           0.225 seconds

   iteration           ||r||                 zeta
        1       0.13559314291612E-12     9.9986441579140
        2       0.20968022875811E-14     8.5733279203222
        3       0.21220139530704E-14     8.5954510374058
        4       0.19264995437250E-14     8.5969972340737
        5       0.19149867265115E-14     8.5971549151767
        6       0.20265347150196E-14     8.5971744311608
        7       0.18896504735573E-14     8.5971770704913
        8       0.19757833551762E-14     8.5971774440630
        9       0.20444345740590E-14     8.5971774983942
       10       0.18659924049472E-14     8.5971775064409
       11       0.18246767922945E-14     8.5971775076486
       12       0.19752103401870E-14     8.5971775078318
       13       0.19111824653436E-14     8.5971775078598
       14       0.18421661947701E-14     8.5971775078641
       15       0.18145999088074E-14     8.5971775078648
 Benchmark completed 
 VERIFICATION SUCCESSFUL 
 Zeta is     0.8597177507865E+01
 Error is    0.1033104665906E-14


 CG Benchmark Completed.
 Class           =                        S
 Size            =                     1400
 Iterations      =                       15
 Time in seconds =                     1.01
 Mop/s total     =                    65.84
 Operation type  =           floating point
 Verification    =               SUCCESSFUL
 Version         =                    3.3.1
 Compile date    =              24 Mar 2026

 Compile options:
    F77          = gfortran
    FLINK        = gfortran
    F_LIB        = (none)
    F_INC        = (none)
    FFLAGS       = -O3 -static -fno-second-underscore
    FLINKFLAGS   = -O3 -static
    RAND         = randi8


 Please send all errors/feedbacks to:

 NPB Development Team
 npb@nas.nasa.gov


Exit @ tick 1238427166000 because exiting with last active thread context
