
---------- Begin Simulation Statistics ----------
final_tick                               1238427166000                       # Number of ticks from beginning of simulation (restored from checkpoints and never reset)
host_inst_rate                                 463310                       # Simulator instruction rate (inst/s)
host_mem_usage                                 668992                       # Number of bytes of host memory used
host_op_rate                                   850232                       # Simulator op (including micro ops) rate (op/s)
host_seconds                                   641.43                       # Real time elapsed on the host
host_tick_rate                             1930727274                       # Simulator tick rate (ticks/s)
sim_freq                                 1000000000000                       # Frequency of simulated ticks
sim_insts                                   297181047                       # Number of instructions simulated
sim_ops                                     545364661                       # Number of ops (including micro ops) simulated
sim_seconds                                  1.238427                       # Number of seconds simulated
sim_ticks                                1238427166000                       # Number of ticks simulated
system.cpu.Branches                          49473280                       # Number of branches fetched
system.cpu.committedInsts                   297181047                       # Number of instructions committed
system.cpu.committedOps                     545364661                       # Number of ops (including micro ops) committed
system.cpu.idle_fraction                     0.000000                       # Percentage of idle cycles
system.cpu.not_idle_fraction                 1.000000                       # Percentage of non-idle cycles
system.cpu.numCycles                       1238427166                       # number of cpu cycles simulated
system.cpu.numWorkItemsCompleted                    0                       # number of work items this cpu completed
system.cpu.numWorkItemsStarted                      0                       # number of work items this cpu started
system.cpu.num_busy_cycles               1238427165.999000                       # Number of busy cycles
system.cpu.num_cc_register_reads            252086620                       # number of times the CC registers were read
system.cpu.num_cc_register_writes           180867069                       # number of times the CC registers were written
system.cpu.num_conditional_control_insts     49270102                       # number of instructions that are conditional controls
system.cpu.num_fp_alu_accesses              184508638                       # Number of float alu accesses
system.cpu.num_fp_insts                     184508638                       # number of float instructions
system.cpu.num_fp_register_reads            225216963                       # number of times the floating registers were read
system.cpu.num_fp_register_writes           180499653                       # number of times the floating registers were written
system.cpu.num_func_calls                       81596                       # number of times a function call or return occured
system.cpu.num_idle_cycles                   0.001000                       # Number of idle cycles
system.cpu.num_int_alu_accesses             435906736                       # Number of integer alu accesses
system.cpu.num_int_insts                    435906736                       # number of integer instructions
system.cpu.num_int_register_reads           778693248                       # number of times the integer registers were read
system.cpu.num_int_register_writes          309382782                       # number of times the integer registers were written
system.cpu.num_load_insts                   111390493                       # Number of load instructions
system.cpu.num_mem_refs                     116747170                       # number of memory refs
system.cpu.num_store_insts                    5356677                       # Number of store instructions
system.cpu.num_vec_alu_accesses                     0                       # Number of vector alu accesses
system.cpu.num_vec_insts                            0                       # number of vector instructions
system.cpu.num_vec_register_reads                   0                       # number of times the vector registers were read
system.cpu.num_vec_register_writes                  0                       # number of times the vector registers were written
system.cpu.op_class::No_OpClass                710629      0.13%      0.13% # Class of executed instruction
system.cpu.op_class::IntAlu                 322694338     59.17%     59.30% # Class of executed instruction
system.cpu.op_class::IntMult                    30102      0.01%     59.31% # Class of executed instruction
system.cpu.op_class::IntDiv                       630      0.00%     59.31% # Class of executed instruction
system.cpu.op_class::FloatAdd                33737834      6.19%     65.49% # Class of executed instruction
system.cpu.op_class::FloatCmp                       0      0.00%     65.49% # Class of executed instruction
system.cpu.op_class::FloatCvt                       0      0.00%     65.49% # Class of executed instruction
system.cpu.op_class::FloatMult                      0      0.00%     65.49% # Class of executed instruction
system.cpu.op_class::FloatMultAcc                   0      0.00%     65.49% # Class of executed instruction
system.cpu.op_class::FloatDiv                       0      0.00%     65.49% # Class of executed instruction
system.cpu.op_class::FloatMisc                      0      0.00%     65.49% # Class of executed instruction
system.cpu.op_class::FloatSqrt                      0      0.00%     65.49% # Class of executed instruction
system.cpu.op_class::SimdAdd                    76762      0.01%     65.51% # Class of executed instruction
system.cpu.op_class::SimdAddAcc                     0      0.00%     65.51% # Class of executed instruction
system.cpu.op_class::SimdAlu                    60252      0.01%     65.52% # Class of executed instruction
system.cpu.op_class::SimdCmp                       24      0.00%     65.52% # Class of executed instruction
system.cpu.op_class::SimdCvt                     1170      0.00%     65.52% # Class of executed instruction
system.cpu.op_class::SimdMisc                  125019      0.02%     65.54% # Class of executed instruction
system.cpu.op_class::SimdMult                       0      0.00%     65.54% # Class of executed instruction
system.cpu.op_class::SimdMultAcc                    0      0.00%     65.54% # Class of executed instruction
system.cpu.op_class::SimdShift                      0      0.00%     65.54% # Class of executed instruction
system.cpu.op_class::SimdShiftAcc                   0      0.00%     65.54% # Class of executed instruction
system.cpu.op_class::SimdDiv                        0      0.00%     65.54% # Class of executed instruction
system.cpu.op_class::SimdSqrt                       0      0.00%     65.54% # Class of executed instruction
system.cpu.op_class::SimdFloatAdd            35512541      6.51%     72.05% # Class of executed instruction
system.cpu.op_class::SimdFloatAlu                   0      0.00%     72.05% # Class of executed instruction
system.cpu.op_class::SimdFloatCmp                   0      0.00%     72.05% # Class of executed instruction
system.cpu.op_class::SimdFloatCvt              101637      0.02%     72.07% # Class of executed instruction
system.cpu.op_class::SimdFloatDiv                 835      0.00%     72.07% # Class of executed instruction
system.cpu.op_class::SimdFloatMisc                  0      0.00%     72.07% # Class of executed instruction
system.cpu.op_class::SimdFloatMult           35565797      6.52%     78.59% # Class of executed instruction
system.cpu.op_class::SimdFloatMultAcc               0      0.00%     78.59% # Class of executed instruction
system.cpu.op_class::SimdFloatSqrt                 32      0.00%     78.59% # Class of executed instruction
system.cpu.op_class::SimdReduceAdd                  0      0.00%     78.59% # Class of executed instruction
system.cpu.op_class::SimdReduceAlu                  0      0.00%     78.59% # Class of executed instruction
system.cpu.op_class::SimdReduceCmp                  0      0.00%     78.59% # Class of executed instruction
system.cpu.op_class::SimdFloatReduceAdd             0      0.00%     78.59% # Class of executed instruction
system.cpu.op_class::SimdFloatReduceCmp             0      0.00%     78.59% # Class of executed instruction
system.cpu.op_class::SimdAes                        0      0.00%     78.59% # Class of executed instruction
system.cpu.op_class::SimdAesMix                     0      0.00%     78.59% # Class of executed instruction
system.cpu.op_class::SimdSha1Hash                   0      0.00%     78.59% # Class of executed instruction
system.cpu.op_class::SimdSha1Hash2                  0      0.00%     78.59% # Class of executed instruction
system.cpu.op_class::SimdSha256Hash                 0      0.00%     78.59% # Class of executed instruction
system.cpu.op_class::SimdSha256Hash2                0      0.00%     78.59% # Class of executed instruction
system.cpu.op_class::SimdShaSigma2                  0      0.00%     78.59% # Class of executed instruction
system.cpu.op_class::SimdShaSigma3                  0      0.00%     78.59% # Class of executed instruction
system.cpu.op_class::SimdPredAlu                    0      0.00%     78.59% # Class of executed instruction
system.cpu.op_class::MemRead                 39670306      7.27%     85.87% # Class of executed instruction
system.cpu.op_class::MemWrite                 1421542      0.26%     86.13% # Class of executed instruction
system.cpu.op_class::FloatMemRead            71720187     13.15%     99.28% # Class of executed instruction
system.cpu.op_class::FloatMemWrite            3935135      0.72%    100.00% # Class of executed instruction
system.cpu.op_class::IprAccess                      0      0.00%    100.00% # Class of executed instruction
system.cpu.op_class::InstPrefetch                   0      0.00%    100.00% # Class of executed instruction
system.cpu.op_class::total                  545364772                       # Class of executed instruction
system.cpu.workload.numSyscalls                    87                       # Number of system calls
system.l2bus.snoop_filter.hit_multi_requests            0                       # Number of requests hitting in the snoop filter with multiple (>1) holders of the requested data.
system.l2bus.snoop_filter.hit_multi_snoops            0                       # Number of snoops hitting in the snoop filter with multiple (>1) holders of the requested data.
system.l2bus.snoop_filter.hit_single_requests      6626203                       # Number of requests hitting in the snoop filter with a single holder of the requested data.
system.l2bus.snoop_filter.hit_single_snoops        17523                       # Number of snoops hitting in the snoop filter with a single holder of the requested data.
system.l2bus.snoop_filter.tot_requests       13253686                       # Total number of requests made to the snoop filter.
system.l2bus.snoop_filter.tot_snoops            17523                       # Total number of snoops made to the snoop filter.
system.membus.snoop_filter.hit_multi_requests            0                       # Number of requests hitting in the snoop filter with multiple (>1) holders of the requested data.
system.membus.snoop_filter.hit_multi_snoops            0                       # Number of snoops hitting in the snoop filter with multiple (>1) holders of the requested data.
system.membus.snoop_filter.hit_single_requests       239137                       # Number of requests hitting in the snoop filter with a single holder of the requested data.
system.membus.snoop_filter.hit_single_snoops            0                       # Number of snoops hitting in the snoop filter with a single holder of the requested data.
system.membus.snoop_filter.tot_requests        494696                       # Total number of requests made to the snoop filter.
system.membus.snoop_filter.tot_snoops               0                       # Total number of snoops made to the snoop filter.
system.clk_domain.clock                          1000                       # Clock period in ticks
system.clk_domain.voltage_domain.voltage            1                       # Voltage in Volts
system.cpu.dcache.demand_hits::.cpu.data    110150281                       # number of demand (read+write) hits
system.cpu.dcache.demand_hits::total        110150281                       # number of demand (read+write) hits
system.cpu.dcache.overall_hits::.cpu.data    110150281                       # number of overall hits
system.cpu.dcache.overall_hits::total       110150281                       # number of overall hits
system.cpu.dcache.demand_misses::.cpu.data      6608747                       # number of demand (read+write) misses
system.cpu.dcache.demand_misses::total        6608747                       # number of demand (read+write) misses
system.cpu.dcache.overall_misses::.cpu.data      6608747                       # number of overall misses
system.cpu.dcache.overall_misses::total       6608747                       # number of overall misses
system.cpu.dcache.demand_miss_latency::.cpu.data 190631391000                       # number of demand (read+write) miss cycles
system.cpu.dcache.demand_miss_latency::total 190631391000                       # number of demand (read+write) miss cycles
system.cpu.dcache.overall_miss_latency::.cpu.data 190631391000                       # number of overall miss cycles
system.cpu.dcache.overall_miss_latency::total 190631391000                       # number of overall miss cycles
system.cpu.dcache.demand_accesses::.cpu.data    116759028                       # number of demand (read+write) accesses
system.cpu.dcache.demand_accesses::total    116759028                       # number of demand (read+write) accesses
system.cpu.dcache.overall_accesses::.cpu.data    116759028                       # number of overall (read+write) accesses
system.cpu.dcache.overall_accesses::total    116759028                       # number of overall (read+write) accesses
system.cpu.dcache.demand_miss_rate::.cpu.data     0.056602                       # miss rate for demand accesses
system.cpu.dcache.demand_miss_rate::total     0.056602                       # miss rate for demand accesses
system.cpu.dcache.overall_miss_rate::.cpu.data     0.056602                       # miss rate for overall accesses
system.cpu.dcache.overall_miss_rate::total     0.056602                       # miss rate for overall accesses
system.cpu.dcache.demand_avg_miss_latency::.cpu.data 28845.315307                       # average overall miss latency
system.cpu.dcache.demand_avg_miss_latency::total 28845.315307                       # average overall miss latency
system.cpu.dcache.overall_avg_miss_latency::.cpu.data 28845.315307                       # average overall miss latency
system.cpu.dcache.overall_avg_miss_latency::total 28845.315307                       # average overall miss latency
system.cpu.dcache.blocked_cycles::no_mshrs            0                       # number of cycles access was blocked
system.cpu.dcache.blocked_cycles::no_targets            0                       # number of cycles access was blocked
system.cpu.dcache.blocked::no_mshrs                 0                       # number of cycles access was blocked
system.cpu.dcache.blocked::no_targets               0                       # number of cycles access was blocked
system.cpu.dcache.avg_blocked_cycles::no_mshrs          nan                       # average number of cycles each access was blocked
system.cpu.dcache.avg_blocked_cycles::no_targets          nan                       # average number of cycles each access was blocked
system.cpu.dcache.writebacks::.writebacks      2938543                       # number of writebacks
system.cpu.dcache.writebacks::total           2938543                       # number of writebacks
system.cpu.dcache.demand_mshr_misses::.cpu.data      6608747                       # number of demand (read+write) MSHR misses
system.cpu.dcache.demand_mshr_misses::total      6608747                       # number of demand (read+write) MSHR misses
system.cpu.dcache.overall_mshr_misses::.cpu.data      6608747                       # number of overall MSHR misses
system.cpu.dcache.overall_mshr_misses::total      6608747                       # number of overall MSHR misses
system.cpu.dcache.demand_mshr_miss_latency::.cpu.data 177413897000                       # number of demand (read+write) MSHR miss cycles
system.cpu.dcache.demand_mshr_miss_latency::total 177413897000                       # number of demand (read+write) MSHR miss cycles
system.cpu.dcache.overall_mshr_miss_latency::.cpu.data 177413897000                       # number of overall MSHR miss cycles
system.cpu.dcache.overall_mshr_miss_latency::total 177413897000                       # number of overall MSHR miss cycles
system.cpu.dcache.demand_mshr_miss_rate::.cpu.data     0.056602                       # mshr miss rate for demand accesses
system.cpu.dcache.demand_mshr_miss_rate::total     0.056602                       # mshr miss rate for demand accesses
system.cpu.dcache.overall_mshr_miss_rate::.cpu.data     0.056602                       # mshr miss rate for overall accesses
system.cpu.dcache.overall_mshr_miss_rate::total     0.056602                       # mshr miss rate for overall accesses
system.cpu.dcache.demand_avg_mshr_miss_latency::.cpu.data 26845.315307                       # average overall mshr miss latency
system.cpu.dcache.demand_avg_mshr_miss_latency::total 26845.315307                       # average overall mshr miss latency
system.cpu.dcache.overall_avg_mshr_miss_latency::.cpu.data 26845.315307                       # average overall mshr miss latency
system.cpu.dcache.overall_avg_mshr_miss_latency::total 26845.315307                       # average overall mshr miss latency
system.cpu.dcache.replacements                6607723                       # number of replacements
system.cpu.dcache.ReadReq_hits::.cpu.data    104904700                       # number of ReadReq hits
system.cpu.dcache.ReadReq_hits::total       104904700                       # number of ReadReq hits
system.cpu.dcache.ReadReq_misses::.cpu.data      6490776                       # number of ReadReq misses
system.cpu.dcache.ReadReq_misses::total       6490776                       # number of ReadReq misses
system.cpu.dcache.ReadReq_miss_latency::.cpu.data 185320199000                       # number of ReadReq miss cycles
system.cpu.dcache.ReadReq_miss_latency::total 185320199000                       # number of ReadReq miss cycles
system.cpu.dcache.ReadReq_accesses::.cpu.data    111395476                       # number of ReadReq accesses(hits+misses)
system.cpu.dcache.ReadReq_accesses::total    111395476                       # number of ReadReq accesses(hits+misses)
system.cpu.dcache.ReadReq_miss_rate::.cpu.data     0.058268                       # miss rate for ReadReq accesses
system.cpu.dcache.ReadReq_miss_rate::total     0.058268                       # miss rate for ReadReq accesses
system.cpu.dcache.ReadReq_avg_miss_latency::.cpu.data 28551.316360                       # average ReadReq miss latency
system.cpu.dcache.ReadReq_avg_miss_latency::total 28551.316360                       # average ReadReq miss latency
system.cpu.dcache.ReadReq_mshr_misses::.cpu.data      6490776                       # number of ReadReq MSHR misses
system.cpu.dcache.ReadReq_mshr_misses::total      6490776                       # number of ReadReq MSHR misses
system.cpu.dcache.ReadReq_mshr_miss_latency::.cpu.data 172338647000                       # number of ReadReq MSHR miss cycles
system.cpu.dcache.ReadReq_mshr_miss_latency::total 172338647000                       # number of ReadReq MSHR miss cycles
system.cpu.dcache.ReadReq_mshr_miss_rate::.cpu.data     0.058268                       # mshr miss rate for ReadReq accesses
system.cpu.dcache.ReadReq_mshr_miss_rate::total     0.058268                       # mshr miss rate for ReadReq accesses
system.cpu.dcache.ReadReq_avg_mshr_miss_latency::.cpu.data 26551.316360                       # average ReadReq mshr miss latency
system.cpu.dcache.ReadReq_avg_mshr_miss_latency::total 26551.316360                       # average ReadReq mshr miss latency
system.cpu.dcache.WriteReq_hits::.cpu.data      5245581                       # number of WriteReq hits
system.cpu.dcache.WriteReq_hits::total        5245581                       # number of WriteReq hits
system.cpu.dcache.WriteReq_misses::.cpu.data       117971                       # number of WriteReq misses
system.cpu.dcache.WriteReq_misses::total       117971                       # number of WriteReq misses
system.cpu.dcache.WriteReq_miss_latency::.cpu.data   5311192000                       # number of WriteReq miss cycles
system.cpu.dcache.WriteReq_miss_latency::total   5311192000                       # number of WriteReq miss cycles
system.cpu.dcache.WriteReq_accesses::.cpu.data      5363552                       # number of WriteReq accesses(hits+misses)
system.cpu.dcache.WriteReq_accesses::total      5363552                       # number of WriteReq accesses(hits+misses)
system.cpu.dcache.WriteReq_miss_rate::.cpu.data     0.021995                       # miss rate for WriteReq accesses
system.cpu.dcache.WriteReq_miss_rate::total     0.021995                       # miss rate for WriteReq accesses
system.cpu.dcache.WriteReq_avg_miss_latency::.cpu.data 45021.166219                       # average WriteReq miss latency
system.cpu.dcache.WriteReq_avg_miss_latency::total 45021.166219                       # average WriteReq miss latency
system.cpu.dcache.WriteReq_mshr_misses::.cpu.data       117971                       # number of WriteReq MSHR misses
system.cpu.dcache.WriteReq_mshr_misses::total       117971                       # number of WriteReq MSHR misses
system.cpu.dcache.WriteReq_mshr_miss_latency::.cpu.data   5075250000                       # number of WriteReq MSHR miss cycles
system.cpu.dcache.WriteReq_mshr_miss_latency::total   5075250000                       # number of WriteReq MSHR miss cycles
system.cpu.dcache.WriteReq_mshr_miss_rate::.cpu.data     0.021995                       # mshr miss rate for WriteReq accesses
system.cpu.dcache.WriteReq_mshr_miss_rate::total     0.021995                       # mshr miss rate for WriteReq accesses
system.cpu.dcache.WriteReq_avg_mshr_miss_latency::.cpu.data 43021.166219                       # average WriteReq mshr miss latency
system.cpu.dcache.WriteReq_avg_mshr_miss_latency::total 43021.166219                       # average WriteReq mshr miss latency
system.cpu.dcache.power_state.pwrStateResidencyTicks::UNDEFINED 1238427166000                       # Cumulative time (in ticks) in various power states
system.cpu.dcache.tags.tagsinuse          1023.737770                       # Cycle average of tags in use
system.cpu.dcache.tags.total_refs           116759028                       # Total number of references to valid blocks.
system.cpu.dcache.tags.sampled_refs           6608747                       # Sample count of references to valid blocks.
system.cpu.dcache.tags.avg_refs             17.667347                       # Average number of references to valid blocks.
system.cpu.dcache.tags.warmup_cycle            224000                       # Cycle when the warmup percentage was hit.
system.cpu.dcache.tags.occ_blocks::.cpu.data  1023.737770                       # Average occupied blocks per requestor
system.cpu.dcache.tags.occ_percent::.cpu.data     0.999744                       # Average percentage of cache occupancy
system.cpu.dcache.tags.occ_percent::total     0.999744                       # Average percentage of cache occupancy
system.cpu.dcache.tags.occ_task_id_blocks::1024         1024                       # Occupied blocks per task id
system.cpu.dcache.tags.age_task_id_blocks_1024::0           25                       # Occupied blocks per task id
system.cpu.dcache.tags.age_task_id_blocks_1024::1          112                       # Occupied blocks per task id
system.cpu.dcache.tags.age_task_id_blocks_1024::2          807                       # Occupied blocks per task id
system.cpu.dcache.tags.age_task_id_blocks_1024::3           80                       # Occupied blocks per task id
system.cpu.dcache.tags.occ_task_id_percent::1024            1                       # Percentage of cache occupancy per task id
system.cpu.dcache.tags.tag_accesses         240126803                       # Number of tag accesses
system.cpu.dcache.tags.data_accesses        240126803                       # Number of data accesses
system.cpu.dcache.tags.power_state.pwrStateResidencyTicks::UNDEFINED 1238427166000                       # Cumulative time (in ticks) in various power states
system.cpu.dtb.rdAccesses                   111395477                       # TLB accesses on read requests
system.cpu.dtb.wrAccesses                     5363575                       # TLB accesses on write requests
system.cpu.dtb.rdMisses                        115974                       # TLB misses on read requests
system.cpu.dtb.wrMisses                          1462                       # TLB misses on write requests
system.cpu.dtb.walker.power_state.pwrStateResidencyTicks::UNDEFINED 1238427166000                       # Cumulative time (in ticks) in various power states
system.cpu.icache.demand_hits::.cpu.inst    413236150                       # number of demand (read+write) hits
system.cpu.icache.demand_hits::total        413236150                       # number of demand (read+write) hits
system.cpu.icache.overall_hits::.cpu.inst    413236150                       # number of overall hits
system.cpu.icache.overall_hits::total       413236150                       # number of overall hits
system.cpu.icache.demand_misses::.cpu.inst        18736                       # number of demand (read+write) misses
system.cpu.icache.demand_misses::total          18736                       # number of demand (read+write) misses
system.cpu.icache.overall_misses::.cpu.inst        18736                       # number of overall misses
system.cpu.icache.overall_misses::total         18736                       # number of overall misses
system.cpu.icache.demand_miss_latency::.cpu.inst   1051730000                       # number of demand (read+write) miss cycles
system.cpu.icache.demand_miss_latency::total   1051730000                       # number of demand (read+write) miss cycles
system.cpu.icache.overall_miss_latency::.cpu.inst   1051730000                       # number of overall miss cycles
system.cpu.icache.overall_miss_latency::total   1051730000                       # number of overall miss cycles
system.cpu.icache.demand_accesses::.cpu.inst    413254886                       # number of demand (read+write) accesses
system.cpu.icache.demand_accesses::total    413254886                       # number of demand (read+write) accesses
system.cpu.icache.overall_accesses::.cpu.inst    413254886                       # number of overall (read+write) accesses
system.cpu.icache.overall_accesses::total    413254886                       # number of overall (read+write) accesses
system.cpu.icache.demand_miss_rate::.cpu.inst     0.000045                       # miss rate for demand accesses
system.cpu.icache.demand_miss_rate::total     0.000045                       # miss rate for demand accesses
system.cpu.icache.overall_miss_rate::.cpu.inst     0.000045                       # miss rate for overall accesses
system.cpu.icache.overall_miss_rate::total     0.000045                       # miss rate for overall accesses
system.cpu.icache.demand_avg_miss_latency::.cpu.inst 56134.180188                       # average overall miss latency
system.cpu.icache.demand_avg_miss_latency::total 56134.180188                       # average overall miss latency
system.cpu.icache.overall_avg_miss_latency::.cpu.inst 56134.180188                       # average overall miss latency
system.cpu.icache.overall_avg_miss_latency::total 56134.180188                       # average overall miss latency
system.cpu.icache.blocked_cycles::no_mshrs            0                       # number of cycles access was blocked
system.cpu.icache.blocked_cycles::no_targets            0                       # number of cycles access was blocked
system.cpu.icache.blocked::no_mshrs                 0                       # number of cycles access was blocked
system.cpu.icache.blocked::no_targets               0                       # number of cycles access was blocked
system.cpu.icache.avg_blocked_cycles::no_mshrs          nan                       # average number of cycles each access was blocked
system.cpu.icache.avg_blocked_cycles::no_targets          nan                       # average number of cycles each access was blocked
system.cpu.icache.demand_mshr_misses::.cpu.inst        18736                       # number of demand (read+write) MSHR misses
system.cpu.icache.demand_mshr_misses::total        18736                       # number of demand (read+write) MSHR misses
system.cpu.icache.overall_mshr_misses::.cpu.inst        18736                       # number of overall MSHR misses
system.cpu.icache.overall_mshr_misses::total        18736                       # number of overall MSHR misses
system.cpu.icache.demand_mshr_miss_latency::.cpu.inst   1014258000                       # number of demand (read+write) MSHR miss cycles
system.cpu.icache.demand_mshr_miss_latency::total   1014258000                       # number of demand (read+write) MSHR miss cycles
system.cpu.icache.overall_mshr_miss_latency::.cpu.inst   1014258000                       # number of overall MSHR miss cycles
system.cpu.icache.overall_mshr_miss_latency::total   1014258000                       # number of overall MSHR miss cycles
system.cpu.icache.demand_mshr_miss_rate::.cpu.inst     0.000045                       # mshr miss rate for demand accesses
system.cpu.icache.demand_mshr_miss_rate::total     0.000045                       # mshr miss rate for demand accesses
system.cpu.icache.overall_mshr_miss_rate::.cpu.inst     0.000045                       # mshr miss rate for overall accesses
system.cpu.icache.overall_mshr_miss_rate::total     0.000045                       # mshr miss rate for overall accesses
system.cpu.icache.demand_avg_mshr_miss_latency::.cpu.inst 54134.180188                       # average overall mshr miss latency
system.cpu.icache.demand_avg_mshr_miss_latency::total 54134.180188                       # average overall mshr miss latency
system.cpu.icache.overall_avg_mshr_miss_latency::.cpu.inst 54134.180188                       # average overall mshr miss latency
system.cpu.icache.overall_avg_mshr_miss_latency::total 54134.180188                       # average overall mshr miss latency
system.cpu.icache.replacements                  18480                       # number of replacements
system.cpu.icache.ReadReq_hits::.cpu.inst    413236150                       # number of ReadReq hits
system.cpu.icache.ReadReq_hits::total       413236150                       # number of ReadReq hits
system.cpu.icache.ReadReq_misses::.cpu.inst        18736                       # number of ReadReq misses
system.cpu.icache.ReadReq_misses::total         18736                       # number of ReadReq misses
system.cpu.icache.ReadReq_miss_latency::.cpu.inst   1051730000                       # number of ReadReq miss cycles
system.cpu.icache.ReadReq_miss_latency::total   1051730000                       # number of ReadReq miss cycles
system.cpu.icache.ReadReq_accesses::.cpu.inst    413254886                       # number of ReadReq accesses(hits+misses)
system.cpu.icache.ReadReq_accesses::total    413254886                       # number of ReadReq accesses(hits+misses)
system.cpu.icache.ReadReq_miss_rate::.cpu.inst     0.000045                       # miss rate for ReadReq accesses
system.cpu.icache.ReadReq_miss_rate::total     0.000045                       # miss rate for ReadReq accesses
system.cpu.icache.ReadReq_avg_miss_latency::.cpu.inst 56134.180188                       # average ReadReq miss latency
system.cpu.icache.ReadReq_avg_miss_latency::total 56134.180188                       # average ReadReq miss latency
system.cpu.icache.ReadReq_mshr_misses::.cpu.inst        18736                       # number of ReadReq MSHR misses
system.cpu.icache.ReadReq_mshr_misses::total        18736                       # number of ReadReq MSHR misses
system.cpu.icache.ReadReq_mshr_miss_latency::.cpu.inst   1014258000                       # number of ReadReq MSHR miss cycles
system.cpu.icache.ReadReq_mshr_miss_latency::total   1014258000                       # number of ReadReq MSHR miss cycles
system.cpu.icache.ReadReq_mshr_miss_rate::.cpu.inst     0.000045                       # mshr miss rate for ReadReq accesses
system.cpu.icache.ReadReq_mshr_miss_rate::total     0.000045                       # mshr miss rate for ReadReq accesses
system.cpu.icache.ReadReq_avg_mshr_miss_latency::.cpu.inst 54134.180188                       # average ReadReq mshr miss latency
system.cpu.icache.ReadReq_avg_mshr_miss_latency::total 54134.180188                       # average ReadReq mshr miss latency
system.cpu.icache.power_state.pwrStateResidencyTicks::UNDEFINED 1238427166000                       # Cumulative time (in ticks) in various power states
system.cpu.icache.tags.tagsinuse           255.989411                       # Cycle average of tags in use
system.cpu.icache.tags.total_refs           413254886                       # Total number of references to valid blocks.
system.cpu.icache.tags.sampled_refs             18736                       # Sample count of references to valid blocks.
system.cpu.icache.tags.avg_refs          22056.729611                       # Average number of references to valid blocks.
system.cpu.icache.tags.warmup_cycle            107000                       # Cycle when the warmup percentage was hit.
system.cpu.icache.tags.occ_blocks::.cpu.inst   255.989411                       # Average occupied blocks per requestor
system.cpu.icache.tags.occ_percent::.cpu.inst     0.999959                       # Average percentage of cache occupancy
system.cpu.icache.tags.occ_percent::total     0.999959                       # Average percentage of cache occupancy
system.cpu.icache.tags.occ_task_id_blocks::1024          256                       # Occupied blocks per task id
system.cpu.icache.tags.age_task_id_blocks_1024::0           35                       # Occupied blocks per task id
system.cpu.icache.tags.age_task_id_blocks_1024::1          116                       # Occupied blocks per task id
system.cpu.icache.tags.age_task_id_blocks_1024::2           98                       # Occupied blocks per task id
system.cpu.icache.tags.age_task_id_blocks_1024::4            7                       # Occupied blocks per task id
system.cpu.icache.tags.occ_task_id_percent::1024            1                       # Percentage of cache occupancy per task id
system.cpu.icache.tags.tag_accesses         826528508                       # Number of tag accesses
system.cpu.icache.tags.data_accesses        826528508                       # Number of data accesses
system.cpu.icache.tags.power_state.pwrStateResidencyTicks::UNDEFINED 1238427166000                       # Cumulative time (in ticks) in various power states
system.cpu.interrupts.clk_domain.clock          16000                       # Clock period in ticks
system.cpu.itb.rdAccesses                           0                       # TLB accesses on read requests
system.cpu.itb.wrAccesses                   413254886                       # TLB accesses on write requests
system.cpu.itb.rdMisses                             0                       # TLB misses on read requests
system.cpu.itb.wrMisses                           110                       # TLB misses on write requests
system.cpu.itb.walker.power_state.pwrStateResidencyTicks::UNDEFINED 1238427166000                       # Cumulative time (in ticks) in various power states
system.cpu.power_state.pwrStateResidencyTicks::ON 1238427166000                       # Cumulative time (in ticks) in various power states
system.cpu.thread_0.numInsts                        0                       # Number of Instructions committed
system.cpu.thread_0.numOps                          0                       # Number of Ops committed
system.cpu.thread_0.numMemRefs                      0                       # Number of Memory References
system.l2bus.trans_dist::ReadResp             6509512                       # Transaction distribution
system.l2bus.trans_dist::WritebackDirty       2972555                       # Transaction distribution
system.l2bus.trans_dist::CleanEvict           3905896                       # Transaction distribution
system.l2bus.trans_dist::ReadExReq             117971                       # Transaction distribution
system.l2bus.trans_dist::ReadExResp            117971                       # Transaction distribution
system.l2bus.trans_dist::ReadSharedReq        6509512                       # Transaction distribution
system.l2bus.pkt_count_system.cpu.icache.mem_side_port::system.l2cache.cpu_side_port        55952                       # Packet count per connected requestor and responder (bytes)
system.l2bus.pkt_count_system.cpu.dcache.mem_side_port::system.l2cache.cpu_side_port     19825217                       # Packet count per connected requestor and responder (bytes)
system.l2bus.pkt_count::total                19881169                       # Packet count per connected requestor and responder (bytes)
system.l2bus.pkt_size_system.cpu.icache.mem_side_port::system.l2cache.cpu_side_port      1199104                       # Cumulative packet size per connected requestor and responder (bytes)
system.l2bus.pkt_size_system.cpu.dcache.mem_side_port::system.l2cache.cpu_side_port    611026560                       # Cumulative packet size per connected requestor and responder (bytes)
system.l2bus.pkt_size::total                612225664                       # Cumulative packet size per connected requestor and responder (bytes)
system.l2bus.snoops                            252248                       # Total snoops (count)
system.l2bus.snoopTraffic                     2176768                       # Total snoop traffic (bytes)
system.l2bus.snoop_fanout::samples            6879731                       # Request fanout histogram
system.l2bus.snoop_fanout::mean              0.002547                       # Request fanout histogram
system.l2bus.snoop_fanout::stdev             0.050404                       # Request fanout histogram
system.l2bus.snoop_fanout::underflows               0      0.00%      0.00% # Request fanout histogram
system.l2bus.snoop_fanout::0                  6862208     99.75%     99.75% # Request fanout histogram
system.l2bus.snoop_fanout::1                    17523      0.25%    100.00% # Request fanout histogram
system.l2bus.snoop_fanout::2                        0      0.00%    100.00% # Request fanout histogram
system.l2bus.snoop_fanout::overflows                0      0.00%    100.00% # Request fanout histogram
system.l2bus.snoop_fanout::min_value                0                       # Request fanout histogram
system.l2bus.snoop_fanout::max_value                1                       # Request fanout histogram
system.l2bus.snoop_fanout::total              6879731                       # Request fanout histogram
system.l2bus.power_state.pwrStateResidencyTicks::UNDEFINED 1238427166000                       # Cumulative time (in ticks) in various power states
system.l2bus.reqLayer0.occupancy          19130772000                       # Layer occupancy (ticks)
system.l2bus.reqLayer0.utilization                1.5                       # Layer utilization (%)
system.l2bus.respLayer0.occupancy            56208000                       # Layer occupancy (ticks)
system.l2bus.respLayer0.utilization               0.0                       # Layer utilization (%)
system.l2bus.respLayer1.occupancy         19826241000                       # Layer occupancy (ticks)
system.l2bus.respLayer1.utilization               1.6                       # Layer utilization (%)
system.l2cache.demand_hits::.cpu.inst           11567                       # number of demand (read+write) hits
system.l2cache.demand_hits::.cpu.data         6360357                       # number of demand (read+write) hits
system.l2cache.demand_hits::total             6371924                       # number of demand (read+write) hits
system.l2cache.overall_hits::.cpu.inst          11567                       # number of overall hits
system.l2cache.overall_hits::.cpu.data        6360357                       # number of overall hits
system.l2cache.overall_hits::total            6371924                       # number of overall hits
system.l2cache.demand_misses::.cpu.inst          7169                       # number of demand (read+write) misses
system.l2cache.demand_misses::.cpu.data        248390                       # number of demand (read+write) misses
system.l2cache.demand_misses::total            255559                       # number of demand (read+write) misses
system.l2cache.overall_misses::.cpu.inst         7169                       # number of overall misses
system.l2cache.overall_misses::.cpu.data       248390                       # number of overall misses
system.l2cache.overall_misses::total           255559                       # number of overall misses
system.l2cache.demand_miss_latency::.cpu.inst    715072000                       # number of demand (read+write) miss cycles
system.l2cache.demand_miss_latency::.cpu.data  24019581000                       # number of demand (read+write) miss cycles
system.l2cache.demand_miss_latency::total  24734653000                       # number of demand (read+write) miss cycles
system.l2cache.overall_miss_latency::.cpu.inst    715072000                       # number of overall miss cycles
system.l2cache.overall_miss_latency::.cpu.data  24019581000                       # number of overall miss cycles
system.l2cache.overall_miss_latency::total  24734653000                       # number of overall miss cycles
system.l2cache.demand_accesses::.cpu.inst        18736                       # number of demand (read+write) accesses
system.l2cache.demand_accesses::.cpu.data      6608747                       # number of demand (read+write) accesses
system.l2cache.demand_accesses::total         6627483                       # number of demand (read+write) accesses
system.l2cache.overall_accesses::.cpu.inst        18736                       # number of overall (read+write) accesses
system.l2cache.overall_accesses::.cpu.data      6608747                       # number of overall (read+write) accesses
system.l2cache.overall_accesses::total        6627483                       # number of overall (read+write) accesses
system.l2cache.demand_miss_rate::.cpu.inst     0.382632                       # miss rate for demand accesses
system.l2cache.demand_miss_rate::.cpu.data     0.037585                       # miss rate for demand accesses
system.l2cache.demand_miss_rate::total       0.038560                       # miss rate for demand accesses
system.l2cache.overall_miss_rate::.cpu.inst     0.382632                       # miss rate for overall accesses
system.l2cache.overall_miss_rate::.cpu.data     0.037585                       # miss rate for overall accesses
system.l2cache.overall_miss_rate::total      0.038560                       # miss rate for overall accesses
system.l2cache.demand_avg_miss_latency::.cpu.inst 99745.013251                       # average overall miss latency
system.l2cache.demand_avg_miss_latency::.cpu.data 96701.078948                       # average overall miss latency
system.l2cache.demand_avg_miss_latency::total 96786.468095                       # average overall miss latency
system.l2cache.overall_avg_miss_latency::.cpu.inst 99745.013251                       # average overall miss latency
system.l2cache.overall_avg_miss_latency::.cpu.data 96701.078948                       # average overall miss latency
system.l2cache.overall_avg_miss_latency::total 96786.468095                       # average overall miss latency
system.l2cache.blocked_cycles::no_mshrs             0                       # number of cycles access was blocked
system.l2cache.blocked_cycles::no_targets            0                       # number of cycles access was blocked
system.l2cache.blocked::no_mshrs                    0                       # number of cycles access was blocked
system.l2cache.blocked::no_targets                  0                       # number of cycles access was blocked
system.l2cache.avg_blocked_cycles::no_mshrs          nan                       # average number of cycles each access was blocked
system.l2cache.avg_blocked_cycles::no_targets          nan                       # average number of cycles each access was blocked
system.l2cache.writebacks::.writebacks          34012                       # number of writebacks
system.l2cache.writebacks::total                34012                       # number of writebacks
system.l2cache.demand_mshr_misses::.cpu.inst         7169                       # number of demand (read+write) MSHR misses
system.l2cache.demand_mshr_misses::.cpu.data       248390                       # number of demand (read+write) MSHR misses
system.l2cache.demand_mshr_misses::total       255559                       # number of demand (read+write) MSHR misses
system.l2cache.overall_mshr_misses::.cpu.inst         7169                       # number of overall MSHR misses
system.l2cache.overall_mshr_misses::.cpu.data       248390                       # number of overall MSHR misses
system.l2cache.overall_mshr_misses::total       255559                       # number of overall MSHR misses
system.l2cache.demand_mshr_miss_latency::.cpu.inst    571692000                       # number of demand (read+write) MSHR miss cycles
system.l2cache.demand_mshr_miss_latency::.cpu.data  19051781000                       # number of demand (read+write) MSHR miss cycles
system.l2cache.demand_mshr_miss_latency::total  19623473000                       # number of demand (read+write) MSHR miss cycles
system.l2cache.overall_mshr_miss_latency::.cpu.inst    571692000                       # number of overall MSHR miss cycles
system.l2cache.overall_mshr_miss_latency::.cpu.data  19051781000                       # number of overall MSHR miss cycles
system.l2cache.overall_mshr_miss_latency::total  19623473000                       # number of overall MSHR miss cycles
system.l2cache.demand_mshr_miss_rate::.cpu.inst     0.382632                       # mshr miss rate for demand accesses
system.l2cache.demand_mshr_miss_rate::.cpu.data     0.037585                       # mshr miss rate for demand accesses
system.l2cache.demand_mshr_miss_rate::total     0.038560                       # mshr miss rate for demand accesses
system.l2cache.overall_mshr_miss_rate::.cpu.inst     0.382632                       # mshr miss rate for overall accesses
system.l2cache.overall_mshr_miss_rate::.cpu.data     0.037585                       # mshr miss rate for overall accesses
system.l2cache.overall_mshr_miss_rate::total     0.038560                       # mshr miss rate for overall accesses
system.l2cache.demand_avg_mshr_miss_latency::.cpu.inst 79745.013251                       # average overall mshr miss latency
system.l2cache.demand_avg_mshr_miss_latency::.cpu.data 76701.078948                       # average overall mshr miss latency
system.l2cache.demand_avg_mshr_miss_latency::total 76786.468095                       # average overall mshr miss latency
system.l2cache.overall_avg_mshr_miss_latency::.cpu.inst 79745.013251                       # average overall mshr miss latency
system.l2cache.overall_avg_mshr_miss_latency::.cpu.data 76701.078948                       # average overall mshr miss latency
system.l2cache.overall_avg_mshr_miss_latency::total 76786.468095                       # average overall mshr miss latency
system.l2cache.replacements                    249958                       # number of replacements
system.l2cache.WritebackDirty_hits::.writebacks      2938433                       # number of WritebackDirty hits
system.l2cache.WritebackDirty_hits::total      2938433                       # number of WritebackDirty hits
system.l2cache.WritebackDirty_misses::.writebacks          110                       # number of WritebackDirty misses
system.l2cache.WritebackDirty_misses::total          110                       # number of WritebackDirty misses
system.l2cache.WritebackDirty_accesses::.writebacks      2938543                       # number of WritebackDirty accesses(hits+misses)
system.l2cache.WritebackDirty_accesses::total      2938543                       # number of WritebackDirty accesses(hits+misses)
system.l2cache.WritebackDirty_miss_rate::.writebacks     0.000037                       # miss rate for WritebackDirty accesses
system.l2cache.WritebackDirty_miss_rate::total     0.000037                       # miss rate for WritebackDirty accesses
system.l2cache.WritebackDirty_mshr_misses::.writebacks          110                       # number of WritebackDirty MSHR misses
system.l2cache.WritebackDirty_mshr_misses::total          110                       # number of WritebackDirty MSHR misses
system.l2cache.WritebackDirty_mshr_miss_rate::.writebacks     0.000037                       # mshr miss rate for WritebackDirty accesses
system.l2cache.WritebackDirty_mshr_miss_rate::total     0.000037                       # mshr miss rate for WritebackDirty accesses
system.l2cache.CleanEvict_mshr_misses::.writebacks         4302                       # number of CleanEvict MSHR misses
system.l2cache.CleanEvict_mshr_misses::total         4302                       # number of CleanEvict MSHR misses
system.l2cache.CleanEvict_mshr_miss_rate::.writebacks          inf                       # mshr miss rate for CleanEvict accesses
system.l2cache.CleanEvict_mshr_miss_rate::total          inf                       # mshr miss rate for CleanEvict accesses
system.l2cache.ReadExReq_hits::.cpu.data        88833                       # number of ReadExReq hits
system.l2cache.ReadExReq_hits::total            88833                       # number of ReadExReq hits
system.l2cache.ReadExReq_misses::.cpu.data        29138                       # number of ReadExReq misses
system.l2cache.ReadExReq_misses::total          29138                       # number of ReadExReq misses
system.l2cache.ReadExReq_miss_latency::.cpu.data   2855482000                       # number of ReadExReq miss cycles
system.l2cache.ReadExReq_miss_latency::total   2855482000                       # number of ReadExReq miss cycles
system.l2cache.ReadExReq_accesses::.cpu.data       117971                       # number of ReadExReq accesses(hits+misses)
system.l2cache.ReadExReq_accesses::total       117971                       # number of ReadExReq accesses(hits+misses)
system.l2cache.ReadExReq_miss_rate::.cpu.data     0.246993                       # miss rate for ReadExReq accesses
system.l2cache.ReadExReq_miss_rate::total     0.246993                       # miss rate for ReadExReq accesses
system.l2cache.ReadExReq_avg_miss_latency::.cpu.data 97998.558583                       # average ReadExReq miss latency
system.l2cache.ReadExReq_avg_miss_latency::total 97998.558583                       # average ReadExReq miss latency
system.l2cache.ReadExReq_mshr_misses::.cpu.data        29138                       # number of ReadExReq MSHR misses
system.l2cache.ReadExReq_mshr_misses::total        29138                       # number of ReadExReq MSHR misses
system.l2cache.ReadExReq_mshr_miss_latency::.cpu.data   2272722000                       # number of ReadExReq MSHR miss cycles
system.l2cache.ReadExReq_mshr_miss_latency::total   2272722000                       # number of ReadExReq MSHR miss cycles
system.l2cache.ReadExReq_mshr_miss_rate::.cpu.data     0.246993                       # mshr miss rate for ReadExReq accesses
system.l2cache.ReadExReq_mshr_miss_rate::total     0.246993                       # mshr miss rate for ReadExReq accesses
system.l2cache.ReadExReq_avg_mshr_miss_latency::.cpu.data 77998.558583                       # average ReadExReq mshr miss latency
system.l2cache.ReadExReq_avg_mshr_miss_latency::total 77998.558583                       # average ReadExReq mshr miss latency
system.l2cache.ReadSharedReq_hits::.cpu.inst        11567                       # number of ReadSharedReq hits
system.l2cache.ReadSharedReq_hits::.cpu.data      6271524                       # number of ReadSharedReq hits
system.l2cache.ReadSharedReq_hits::total      6283091                       # number of ReadSharedReq hits
system.l2cache.ReadSharedReq_misses::.cpu.inst         7169                       # number of ReadSharedReq misses
system.l2cache.ReadSharedReq_misses::.cpu.data       219252                       # number of ReadSharedReq misses
system.l2cache.ReadSharedReq_misses::total       226421                       # number of ReadSharedReq misses
system.l2cache.ReadSharedReq_miss_latency::.cpu.inst    715072000                       # number of ReadSharedReq miss cycles
system.l2cache.ReadSharedReq_miss_latency::.cpu.data  21164099000                       # number of ReadSharedReq miss cycles
system.l2cache.ReadSharedReq_miss_latency::total  21879171000                       # number of ReadSharedReq miss cycles
system.l2cache.ReadSharedReq_accesses::.cpu.inst        18736                       # number of ReadSharedReq accesses(hits+misses)
system.l2cache.ReadSharedReq_accesses::.cpu.data      6490776                       # number of ReadSharedReq accesses(hits+misses)
system.l2cache.ReadSharedReq_accesses::total      6509512                       # number of ReadSharedReq accesses(hits+misses)
system.l2cache.ReadSharedReq_miss_rate::.cpu.inst     0.382632                       # miss rate for ReadSharedReq accesses
system.l2cache.ReadSharedReq_miss_rate::.cpu.data     0.033779                       # miss rate for ReadSharedReq accesses
system.l2cache.ReadSharedReq_miss_rate::total     0.034783                       # miss rate for ReadSharedReq accesses
system.l2cache.ReadSharedReq_avg_miss_latency::.cpu.inst 99745.013251                       # average ReadSharedReq miss latency
system.l2cache.ReadSharedReq_avg_miss_latency::.cpu.data 96528.647401                       # average ReadSharedReq miss latency
system.l2cache.ReadSharedReq_avg_miss_latency::total 96630.484805                       # average ReadSharedReq miss latency
system.l2cache.ReadSharedReq_mshr_misses::.cpu.inst         7169                       # number of ReadSharedReq MSHR misses
system.l2cache.ReadSharedReq_mshr_misses::.cpu.data       219252                       # number of ReadSharedReq MSHR misses
system.l2cache.ReadSharedReq_mshr_misses::total       226421                       # number of ReadSharedReq MSHR misses
system.l2cache.ReadSharedReq_mshr_miss_latency::.cpu.inst    571692000                       # number of ReadSharedReq MSHR miss cycles
system.l2cache.ReadSharedReq_mshr_miss_latency::.cpu.data  16779059000                       # number of ReadSharedReq MSHR miss cycles
system.l2cache.ReadSharedReq_mshr_miss_latency::total  17350751000                       # number of ReadSharedReq MSHR miss cycles
system.l2cache.ReadSharedReq_mshr_miss_rate::.cpu.inst     0.382632                       # mshr miss rate for ReadSharedReq accesses
system.l2cache.ReadSharedReq_mshr_miss_rate::.cpu.data     0.033779                       # mshr miss rate for ReadSharedReq accesses
system.l2cache.ReadSharedReq_mshr_miss_rate::total     0.034783                       # mshr miss rate for ReadSharedReq accesses
system.l2cache.ReadSharedReq_avg_mshr_miss_latency::.cpu.inst 79745.013251                       # average ReadSharedReq mshr miss latency
system.l2cache.ReadSharedReq_avg_mshr_miss_latency::.cpu.data 76528.647401                       # average ReadSharedReq mshr miss latency
system.l2cache.ReadSharedReq_avg_mshr_miss_latency::total 76630.484805                       # average ReadSharedReq mshr miss latency
system.l2cache.power_state.pwrStateResidencyTicks::UNDEFINED 1238427166000                       # Cumulative time (in ticks) in various power states
system.l2cache.replacement_policy.totalBypasses         2400                       # Total number of cache bypasses
system.l2cache.replacement_policy.effectiveBypasses          634                       # Bypasses that correctly skipped non-reused blocks
system.l2cache.replacement_policy.ineffectiveBypasses         1725                       # Bypasses that incorrectly skipped requested blocks
system.l2cache.replacement_policy.virtualEffectiveBypasses         3169                       # Virtual bypasses correctly predicting non-reused blocks
system.l2cache.replacement_policy.virtualIneffectiveBypasses         9803                       # Virtual bypasses incorrectly predicting requested blocks
system.l2cache.tags.tagsinuse            16332.801492                       # Cycle average of tags in use
system.l2cache.tags.total_refs               13246984                       # Total number of references to valid blocks.
system.l2cache.tags.sampled_refs               266342                       # Sample count of references to valid blocks.
system.l2cache.tags.avg_refs                49.736744                       # Average number of references to valid blocks.
system.l2cache.tags.warmup_cycle                86000                       # Cycle when the warmup percentage was hit.
system.l2cache.tags.occ_blocks::.writebacks   102.832703                       # Average occupied blocks per requestor
system.l2cache.tags.occ_blocks::.cpu.inst   227.804207                       # Average occupied blocks per requestor
system.l2cache.tags.occ_blocks::.cpu.data 16002.164581                       # Average occupied blocks per requestor
system.l2cache.tags.occ_percent::.writebacks     0.006276                       # Average percentage of cache occupancy
system.l2cache.tags.occ_percent::.cpu.inst     0.013904                       # Average percentage of cache occupancy
system.l2cache.tags.occ_percent::.cpu.data     0.976695                       # Average percentage of cache occupancy
system.l2cache.tags.occ_percent::total       0.996875                       # Average percentage of cache occupancy
system.l2cache.tags.occ_task_id_blocks::1024        16384                       # Occupied blocks per task id
system.l2cache.tags.age_task_id_blocks_1024::0           56                       # Occupied blocks per task id
system.l2cache.tags.age_task_id_blocks_1024::1          143                       # Occupied blocks per task id
system.l2cache.tags.age_task_id_blocks_1024::2         1572                       # Occupied blocks per task id
system.l2cache.tags.age_task_id_blocks_1024::3          588                       # Occupied blocks per task id
system.l2cache.tags.age_task_id_blocks_1024::4        14025                       # Occupied blocks per task id
system.l2cache.tags.occ_task_id_percent::1024            1                       # Percentage of cache occupancy per task id
system.l2cache.tags.tag_accesses            106295830                       # Number of tag accesses
system.l2cache.tags.data_accesses           106295830                       # Number of data accesses
system.l2cache.tags.power_state.pwrStateResidencyTicks::UNDEFINED 1238427166000                       # Cumulative time (in ticks) in various power states
system.mem_ctrl.avgPriority_.writebacks::samples     27699.00                       # Average QoS priority value for accepted requests
system.mem_ctrl.avgPriority_.cpu.inst::samples      7169.00                       # Average QoS priority value for accepted requests
system.mem_ctrl.avgPriority_.cpu.data::samples    240738.00                       # Average QoS priority value for accepted requests
system.mem_ctrl.priorityMinLatency       0.000000018750                       # per QoS priority minimum request to response latency (s)
system.mem_ctrl.priorityMaxLatency       0.128970546500                       # per QoS priority maximum request to response latency (s)
system.mem_ctrl.numReadWriteTurnArounds          1571                       # Number of turnarounds from READ to WRITE
system.mem_ctrl.numWriteReadTurnArounds          1571                       # Number of turnarounds from WRITE to READ
system.mem_ctrl.numStayReadState               847641                       # Number of times bus staying in READ state
system.mem_ctrl.numStayWriteState               26153                       # Number of times bus staying in WRITE state
system.mem_ctrl.readReqs                       255559                       # Number of read requests accepted
system.mem_ctrl.writeReqs                       34122                       # Number of write requests accepted
system.mem_ctrl.readBursts                     255559                       # Number of controller read bursts, including those serviced by the write queue
system.mem_ctrl.writeBursts                     34122                       # Number of controller write bursts, including those merged in the write queue
system.mem_ctrl.servicedByWrQ                    7652                       # Number of controller read bursts serviced by the write queue
system.mem_ctrl.mergedWrBursts                   6423                       # Number of controller write bursts merged with an existing one
system.mem_ctrl.neitherReadNorWriteReqs             0                       # Number of requests that are neither read nor write
system.mem_ctrl.avgRdQLen                        1.00                       # Average read queue length when enqueuing
system.mem_ctrl.avgWrQLen                       25.32                       # Average write queue length when enqueuing
system.mem_ctrl.numRdRetry                          0                       # Number of times read queue was full causing retry
system.mem_ctrl.numWrRetry                          0                       # Number of times write queue was full causing retry
system.mem_ctrl.readPktSize::0                      0                       # Read request sizes (log2)
system.mem_ctrl.readPktSize::1                      0                       # Read request sizes (log2)
system.mem_ctrl.readPktSize::2                      0                       # Read request sizes (log2)
system.mem_ctrl.readPktSize::3                      0                       # Read request sizes (log2)
system.mem_ctrl.readPktSize::4                      0                       # Read request sizes (log2)
system.mem_ctrl.readPktSize::5                      0                       # Read request sizes (log2)
system.mem_ctrl.readPktSize::6                 255559                       # Read request sizes (log2)
system.mem_ctrl.writePktSize::0                     0                       # Write request sizes (log2)
system.mem_ctrl.writePktSize::1                     0                       # Write request sizes (log2)
system.mem_ctrl.writePktSize::2                     0                       # Write request sizes (log2)
system.mem_ctrl.writePktSize::3                     0                       # Write request sizes (log2)
system.mem_ctrl.writePktSize::4                     0                       # Write request sizes (log2)
system.mem_ctrl.writePktSize::5                     0                       # Write request sizes (log2)
system.mem_ctrl.writePktSize::6                 34122                       # Write request sizes (log2)
system.mem_ctrl.rdQLenPdf::0                   247827                       # What read queue length does an incoming req see
system.mem_ctrl.rdQLenPdf::1                       80                       # What read queue length does an incoming req see
system.mem_ctrl.rdQLenPdf::2                        0                       # What read queue length does an incoming req see
system.mem_ctrl.rdQLenPdf::3                        0                       # What read queue length does an incoming req see
system.mem_ctrl.rdQLenPdf::4                        0                       # What read queue length does an incoming req see
system.mem_ctrl.rdQLenPdf::5                        0                       # What read queue length does an incoming req see
system.mem_ctrl.rdQLenPdf::6                        0                       # What read queue length does an incoming req see
system.mem_ctrl.rdQLenPdf::7                        0                       # What read queue length does an incoming req see
system.mem_ctrl.rdQLenPdf::8                        0                       # What read queue length does an incoming req see
system.mem_ctrl.rdQLenPdf::9                        0                       # What read queue length does an incoming req see
system.mem_ctrl.rdQLenPdf::10                       0                       # What read queue length does an incoming req see
system.mem_ctrl.rdQLenPdf::11                       0                       # What read queue length does an incoming req see
system.mem_ctrl.rdQLenPdf::12                       0                       # What read queue length does an incoming req see
system.mem_ctrl.rdQLenPdf::13                       0                       # What read queue length does an incoming req see
system.mem_ctrl.rdQLenPdf::14                       0                       # What read queue length does an incoming req see
system.mem_ctrl.rdQLenPdf::15                       0                       # What read queue length does an incoming req see
system.mem_ctrl.rdQLenPdf::16                       0                       # What read queue length does an incoming req see
system.mem_ctrl.rdQLenPdf::17                       0                       # What read queue length does an incoming req see
system.mem_ctrl.rdQLenPdf::18                       0                       # What read queue length does an incoming req see
system.mem_ctrl.rdQLenPdf::19                       0                       # What read queue length does an incoming req see
system.mem_ctrl.rdQLenPdf::20                       0                       # What read queue length does an incoming req see
system.mem_ctrl.rdQLenPdf::21                       0                       # What read queue length does an incoming req see
system.mem_ctrl.rdQLenPdf::22                       0                       # What read queue length does an incoming req see
system.mem_ctrl.rdQLenPdf::23                       0                       # What read queue length does an incoming req see
system.mem_ctrl.rdQLenPdf::24                       0                       # What read queue length does an incoming req see
system.mem_ctrl.rdQLenPdf::25                       0                       # What read queue length does an incoming req see
system.mem_ctrl.rdQLenPdf::26                       0                       # What read queue length does an incoming req see
system.mem_ctrl.rdQLenPdf::27                       0                       # What read queue length does an incoming req see
system.mem_ctrl.rdQLenPdf::28                       0                       # What read queue length does an incoming req see
system.mem_ctrl.rdQLenPdf::29                       0                       # What read queue length does an incoming req see
system.mem_ctrl.rdQLenPdf::30                       0                       # What read queue length does an incoming req see
system.mem_ctrl.rdQLenPdf::31                       0                       # What read queue length does an incoming req see
system.mem_ctrl.wrQLenPdf::0                        1                       # What write queue length does an incoming req see
system.mem_ctrl.wrQLenPdf::1                        1                       # What write queue length does an incoming req see
system.mem_ctrl.wrQLenPdf::2                        1                       # What write queue length does an incoming req see
system.mem_ctrl.wrQLenPdf::3                        1                       # What write queue length does an incoming req see
system.mem_ctrl.wrQLenPdf::4                        1                       # What write queue length does an incoming req see
system.mem_ctrl.wrQLenPdf::5                        1                       # What write queue length does an incoming req see
system.mem_ctrl.wrQLenPdf::6                        1                       # What write queue length does an incoming req see
system.mem_ctrl.wrQLenPdf::7                        1                       # What write queue length does an incoming req see
system.mem_ctrl.wrQLenPdf::8                        1                       # What write queue length does an incoming req see
system.mem_ctrl.wrQLenPdf::9                        1                       # What write queue length does an incoming req see
system.mem_ctrl.wrQLenPdf::10                       1                       # What write queue length does an incoming req see
system.mem_ctrl.wrQLenPdf::11                       1                       # What write queue length does an incoming req see
system.mem_ctrl.wrQLenPdf::12                       1                       # What write queue length does an incoming req see
system.mem_ctrl.wrQLenPdf::13                       1                       # What write queue length does an incoming req see
system.mem_ctrl.wrQLenPdf::14                       1                       # What write queue length does an incoming req see
system.mem_ctrl.wrQLenPdf::15                    1260                       # What write queue length does an incoming req see
system.mem_ctrl.wrQLenPdf::16                    1283                       # What write queue length does an incoming req see
system.mem_ctrl.wrQLenPdf::17                    1572                       # What write queue length does an incoming req see
system.mem_ctrl.wrQLenPdf::18                    1572                       # What write queue length does an incoming req see
system.mem_ctrl.wrQLenPdf::19                    1572                       # What write queue length does an incoming req see
system.mem_ctrl.wrQLenPdf::20                    1572                       # What write queue length does an incoming req see
system.mem_ctrl.wrQLenPdf::21                    1571                       # What write queue length does an incoming req see
system.mem_ctrl.wrQLenPdf::22                    1571                       # What write queue length does an incoming req see
system.mem_ctrl.wrQLenPdf::23                    1572                       # What write queue length does an incoming req see
system.mem_ctrl.wrQLenPdf::24                    1571                       # What write queue length does an incoming req see
system.mem_ctrl.wrQLenPdf::25                    1571                       # What write queue length does an incoming req see
system.mem_ctrl.wrQLenPdf::26                    1571                       # What write queue length does an incoming req see
system.mem_ctrl.wrQLenPdf::27                    1571                       # What write queue length does an incoming req see
system.mem_ctrl.wrQLenPdf::28                    1571                       # What write queue length does an incoming req see
system.mem_ctrl.wrQLenPdf::29                    1571                       # What write queue length does an incoming req see
system.mem_ctrl.wrQLenPdf::30                    1571                       # What write queue length does an incoming req see
system.mem_ctrl.wrQLenPdf::31                    1571                       # What write queue length does an incoming req see
system.mem_ctrl.wrQLenPdf::32                    1571                       # What write queue length does an incoming req see
system.mem_ctrl.wrQLenPdf::33                       0                       # What write queue length does an incoming req see
system.mem_ctrl.wrQLenPdf::34                       0                       # What write queue length does an incoming req see
system.mem_ctrl.wrQLenPdf::35                       0                       # What write queue length does an incoming req see
system.mem_ctrl.wrQLenPdf::36                       0                       # What write queue length does an incoming req see
system.mem_ctrl.wrQLenPdf::37                       0                       # What write queue length does an incoming req see
system.mem_ctrl.wrQLenPdf::38                       0                       # What write queue length does an incoming req see
system.mem_ctrl.wrQLenPdf::39                       0                       # What write queue length does an incoming req see
system.mem_ctrl.wrQLenPdf::40                       0                       # What write queue length does an incoming req see
system.mem_ctrl.wrQLenPdf::41                       0                       # What write queue length does an incoming req see
system.mem_ctrl.wrQLenPdf::42                       0                       # What write queue length does an incoming req see
system.mem_ctrl.wrQLenPdf::43                       0                       # What write queue length does an incoming req see
system.mem_ctrl.wrQLenPdf::44                       0                       # What write queue length does an incoming req see
system.mem_ctrl.wrQLenPdf::45                       0                       # What write queue length does an incoming req see
system.mem_ctrl.wrQLenPdf::46                       0                       # What write queue length does an incoming req see
system.mem_ctrl.wrQLenPdf::47                       0                       # What write queue length does an incoming req see
system.mem_ctrl.wrQLenPdf::48                       0                       # What write queue length does an incoming req see
system.mem_ctrl.wrQLenPdf::49                       0                       # What write queue length does an incoming req see
system.mem_ctrl.wrQLenPdf::50                       0                       # What write queue length does an incoming req see
system.mem_ctrl.wrQLenPdf::51                       0                       # What write queue length does an incoming req see
system.mem_ctrl.wrQLenPdf::52                       0                       # What write queue length does an incoming req see
system.mem_ctrl.wrQLenPdf::53                       0                       # What write queue length does an incoming req see
system.mem_ctrl.wrQLenPdf::54                       0                       # What write queue length does an incoming req see
system.mem_ctrl.wrQLenPdf::55                       0                       # What write queue length does an incoming req see
system.mem_ctrl.wrQLenPdf::56                       0                       # What write queue length does an incoming req see
system.mem_ctrl.wrQLenPdf::57                       0                       # What write queue length does an incoming req see
system.mem_ctrl.wrQLenPdf::58                       0                       # What write queue length does an incoming req see
system.mem_ctrl.wrQLenPdf::59                       0                       # What write queue length does an incoming req see
system.mem_ctrl.wrQLenPdf::60                       0                       # What write queue length does an incoming req see
system.mem_ctrl.wrQLenPdf::61                       0                       # What write queue length does an incoming req see
system.mem_ctrl.wrQLenPdf::62                       0                       # What write queue length does an incoming req see
system.mem_ctrl.wrQLenPdf::63                       0                       # What write queue length does an incoming req see
system.mem_ctrl.rdPerTurnAround::samples         1571                       # Reads before turning the bus around for writes
system.mem_ctrl.rdPerTurnAround::mean      157.778485                       # Reads before turning the bus around for writes
system.mem_ctrl.rdPerTurnAround::gmean      27.874626                       # Reads before turning the bus around for writes
system.mem_ctrl.rdPerTurnAround::stdev     947.079382                       # Reads before turning the bus around for writes
system.mem_ctrl.rdPerTurnAround::0-1023          1537     97.84%     97.84% # Reads before turning the bus around for writes
system.mem_ctrl.rdPerTurnAround::1024-2047            4      0.25%     98.09% # Reads before turning the bus around for writes
system.mem_ctrl.rdPerTurnAround::2048-3071            9      0.57%     98.66% # Reads before turning the bus around for writes
system.mem_ctrl.rdPerTurnAround::3072-4095            4      0.25%     98.92% # Reads before turning the bus around for writes
system.mem_ctrl.rdPerTurnAround::4096-5119            1      0.06%     98.98% # Reads before turning the bus around for writes
system.mem_ctrl.rdPerTurnAround::5120-6143            1      0.06%     99.05% # Reads before turning the bus around for writes
system.mem_ctrl.rdPerTurnAround::7168-8191            3      0.19%     99.24% # Reads before turning the bus around for writes
system.mem_ctrl.rdPerTurnAround::8192-9215           11      0.70%     99.94% # Reads before turning the bus around for writes
system.mem_ctrl.rdPerTurnAround::16384-17407            1      0.06%    100.00% # Reads before turning the bus around for writes
system.mem_ctrl.rdPerTurnAround::total           1571                       # Reads before turning the bus around for writes
system.mem_ctrl.wrPerTurnAround::samples         1571                       # Writes before turning the bus around for reads
system.mem_ctrl.wrPerTurnAround::mean       17.618078                       # Writes before turning the bus around for reads
system.mem_ctrl.wrPerTurnAround::gmean      17.600056                       # Writes before turning the bus around for reads
system.mem_ctrl.wrPerTurnAround::stdev       0.778225                       # Writes before turning the bus around for reads
system.mem_ctrl.wrPerTurnAround::16               289     18.40%     18.40% # Writes before turning the bus around for reads
system.mem_ctrl.wrPerTurnAround::17                23      1.46%     19.86% # Writes before turning the bus around for reads
system.mem_ctrl.wrPerTurnAround::18              1258     80.08%     99.94% # Writes before turning the bus around for reads
system.mem_ctrl.wrPerTurnAround::19                 1      0.06%    100.00% # Writes before turning the bus around for reads
system.mem_ctrl.wrPerTurnAround::total           1571                       # Writes before turning the bus around for reads
system.mem_ctrl.bytesReadWrQ                   489728                       # Total number of bytes read from write queue
system.mem_ctrl.bytesReadSys                 16355776                       # Total read bytes from the system interface side
system.mem_ctrl.bytesWrittenSys               2183808                       # Total written bytes from the system interface side
[...]
system.mem_ctrl.requestorReadRate::.cpu.data 12440967.400419574231                       # Per-requestor bytes read from memory rate (Bytes/sec)
system.mem_ctrl.requestorWriteRate::.writebacks 1430356.220076651778                       # Per-requestor bytes write to memory rate (Bytes/sec)
system.mem_ctrl.requestorReadAccesses::.cpu.inst         7169                       # Per-requestor read serviced memory accesses
system.mem_ctrl.requestorReadAccesses::.cpu.data       248390                       # Per-requestor read serviced memory accesses
system.mem_ctrl.requestorWriteAccesses::.writebacks        34122                       # Per-requestor write serviced memory accesses
system.mem_ctrl.requestorReadTotalLat::.cpu.inst    203621750                       # Per-requestor read total memory access latency
system.mem_ctrl.requestorReadTotalLat::.cpu.data   6387840750                       # Per-requestor read total memory access latency
system.mem_ctrl.requestorWriteTotalLat::.writebacks 30945683553250                       # Per-requestor write total memory access latency
system.mem_ctrl.requestorReadAvgLat::.cpu.inst     28403.09                       # Per-requestor read average memory access latency
system.mem_ctrl.requestorReadAvgLat::.cpu.data     25716.98                       # Per-requestor read average memory access latency
system.mem_ctrl.requestorWriteAvgLat::.writebacks 906912946.29                       # Per-requestor write average memory access latency
system.mem_ctrl.dram.bytes_read::.cpu.inst       458816                       # Number of bytes read from this memory
system.mem_ctrl.dram.bytes_read::.cpu.data     15896960                       # Number of bytes read from this memory
system.mem_ctrl.dram.bytes_read::total       16355776                       # Number of bytes read from this memory
system.mem_ctrl.dram.bytes_inst_read::.cpu.inst       458816                       # Number of instructions bytes read from this memory
system.mem_ctrl.dram.bytes_inst_read::total       458816                       # Number of instructions bytes read from this memory
system.mem_ctrl.dram.bytes_written::.writebacks      2183808                       # Number of bytes written to this memory
system.mem_ctrl.dram.bytes_written::total      2183808                       # Number of bytes written to this memory
system.mem_ctrl.dram.num_reads::.cpu.inst         7169                       # Number of read requests responded to by this memory
system.mem_ctrl.dram.num_reads::.cpu.data       248390                       # Number of read requests responded to by this memory
system.mem_ctrl.dram.num_reads::total          255559                       # Number of read requests responded to by this memory
system.mem_ctrl.dram.num_writes::.writebacks        34122                       # Number of write requests responded to by this memory
system.mem_ctrl.dram.num_writes::total          34122                       # Number of write requests responded to by this memory
system.mem_ctrl.dram.bw_read::.cpu.inst        370483                       # Total read bandwidth from this memory (bytes/s)
system.mem_ctrl.dram.bw_read::.cpu.data      12836411                       # Total read bandwidth from this memory (bytes/s)
system.mem_ctrl.dram.bw_read::total          13206894                       # Total read bandwidth from this memory (bytes/s)
system.mem_ctrl.dram.bw_inst_read::.cpu.inst       370483                       # Instruction read bandwidth from this memory (bytes/s)
system.mem_ctrl.dram.bw_inst_read::total       370483                       # Instruction read bandwidth from this memory (bytes/s)
system.mem_ctrl.dram.bw_write::.writebacks      1763372                       # Write bandwidth from this memory (bytes/s)
system.mem_ctrl.dram.bw_write::total          1763372                       # Write bandwidth from this memory (bytes/s)
system.mem_ctrl.dram.bw_total::.writebacks      1763372                       # Total bandwidth to/from this memory (bytes/s)
system.mem_ctrl.dram.bw_total::.cpu.inst       370483                       # Total bandwidth to/from this memory (bytes/s)
system.mem_ctrl.dram.bw_total::.cpu.data     12836411                       # Total bandwidth to/from this memory (bytes/s)
system.mem_ctrl.dram.bw_total::total         14970266                       # Total bandwidth to/from this memory (bytes/s)
system.mem_ctrl.dram.readBursts                247907                       # Number of DRAM read bursts
system.mem_ctrl.dram.writeBursts                27678                       # Number of DRAM write bursts
system.mem_ctrl.dram.perBankRdBursts::0          9501                       # Per bank write bursts
system.mem_ctrl.dram.perBankRdBursts::1          5179                       # Per bank write bursts
system.mem_ctrl.dram.perBankRdBursts::2          3579                       # Per bank write bursts
system.mem_ctrl.dram.perBankRdBursts::3          3385                       # Per bank write bursts
system.mem_ctrl.dram.perBankRdBursts::4          3946                       # Per bank write bursts
system.mem_ctrl.dram.perBankRdBursts::5          6729                       # Per bank write bursts
system.mem_ctrl.dram.perBankRdBursts::6         77787                       # Per bank write bursts
system.mem_ctrl.dram.perBankRdBursts::7         84924                       # Per bank write bursts
system.mem_ctrl.dram.perBankRdBursts::8          8197                       # Per bank write bursts
system.mem_ctrl.dram.perBankRdBursts::9          3196                       # Per bank write bursts
system.mem_ctrl.dram.perBankRdBursts::10         4546                       # Per bank write bursts
system.mem_ctrl.dram.perBankRdBursts::11         2411                       # Per bank write bursts
system.mem_ctrl.dram.perBankRdBursts::12         3218                       # Per bank write bursts
system.mem_ctrl.dram.perBankRdBursts::13         4729                       # Per bank write bursts
system.mem_ctrl.dram.perBankRdBursts::14         9002                       # Per bank write bursts
system.mem_ctrl.dram.perBankRdBursts::15        17578                       # Per bank write bursts
system.mem_ctrl.dram.perBankWrBursts::0          2299                       # Per bank write bursts
system.mem_ctrl.dram.perBankWrBursts::1          1847                       # Per bank write bursts
system.mem_ctrl.dram.perBankWrBursts::2          1933                       # Per bank write bursts
system.mem_ctrl.dram.perBankWrBursts::3          1985                       # Per bank write bursts
system.mem_ctrl.dram.perBankWrBursts::4          1350                       # Per bank write bursts
system.mem_ctrl.dram.perBankWrBursts::5          1488                       # Per bank write bursts
system.mem_ctrl.dram.perBankWrBursts::6          2454                       # Per bank write bursts
system.mem_ctrl.dram.perBankWrBursts::7          2632                       # Per bank write bursts
system.mem_ctrl.dram.perBankWrBursts::8          1782                       # Per bank write bursts
system.mem_ctrl.dram.perBankWrBursts::9           786                       # Per bank write bursts
system.mem_ctrl.dram.perBankWrBursts::10          727                       # Per bank write bursts
system.mem_ctrl.dram.perBankWrBursts::11          919                       # Per bank write bursts
system.mem_ctrl.dram.perBankWrBursts::12         1171                       # Per bank write bursts
system.mem_ctrl.dram.perBankWrBursts::13         1979                       # Per bank write bursts
system.mem_ctrl.dram.perBankWrBursts::14         1894                       # Per bank write bursts
system.mem_ctrl.dram.perBankWrBursts::15         2432                       # Per bank write bursts
system.mem_ctrl.dram.totQLat               1943206250                       # Total ticks spent queuing
system.mem_ctrl.dram.totBusLat             1239535000                       # Total ticks spent in databus transfers
system.mem_ctrl.dram.totMemAccLat          6591462500                       # Total ticks spent from burst creation until serviced by the DRAM
system.mem_ctrl.dram.avgQLat                  7838.45                       # Average queueing delay per DRAM burst
system.mem_ctrl.dram.avgBusLat                5000.00                       # Average bus latency per DRAM burst
system.mem_ctrl.dram.avgMemAccLat            26588.45                       # Average memory access latency per DRAM burst
system.mem_ctrl.dram.readRowHits               194937                       # Number of row buffer hits during reads
system.mem_ctrl.dram.writeRowHits               20709                       # Number of row buffer hits during writes
system.mem_ctrl.dram.readRowHitRate             78.63                       # Row buffer hit rate for reads
system.mem_ctrl.dram.writeRowHitRate            74.82                       # Row buffer hit rate for writes
system.mem_ctrl.dram.bytesPerActivate::samples        59936                       # Bytes accessed per row activation
system.mem_ctrl.dram.bytesPerActivate::mean   294.266951                       # Bytes accessed per row activation
system.mem_ctrl.dram.bytesPerActivate::gmean   177.302119                       # Bytes accessed per row activation
system.mem_ctrl.dram.bytesPerActivate::stdev   298.174092                       # Bytes accessed per row activation
system.mem_ctrl.dram.bytesPerActivate::0-127        24057     40.14%     40.14% # Bytes accessed per row activation
system.mem_ctrl.dram.bytesPerActivate::128-255        11554     19.28%     59.42% # Bytes accessed per row activation
system.mem_ctrl.dram.bytesPerActivate::256-383         5797      9.67%     69.09% # Bytes accessed per row activation
system.mem_ctrl.dram.bytesPerActivate::384-511         4904      8.18%     77.27% # Bytes accessed per row activation
system.mem_ctrl.dram.bytesPerActivate::512-639         3035      5.06%     82.33% # Bytes accessed per row activation
system.mem_ctrl.dram.bytesPerActivate::640-767         2717      4.53%     86.87% # Bytes accessed per row activation
system.mem_ctrl.dram.bytesPerActivate::768-895         3169      5.29%     92.15% # Bytes accessed per row activation
system.mem_ctrl.dram.bytesPerActivate::896-1023         1319      2.20%     94.35% # Bytes accessed per row activation
system.mem_ctrl.dram.bytesPerActivate::1024-1151         3384      5.65%    100.00% # Bytes accessed per row activation
system.mem_ctrl.dram.bytesPerActivate::total        59936                       # Bytes accessed per row activation
system.mem_ctrl.dram.bytesRead               15866048                       # Total number of bytes read from DRAM
system.mem_ctrl.dram.bytesWritten             1771392                       # Total number of bytes written to DRAM
system.mem_ctrl.dram.avgRdBW                12.811450                       # Average DRAM read bandwidth in MiBytes/s
system.mem_ctrl.dram.avgWrBW                 1.430356                       # Average DRAM write bandwidth in MiBytes/s
system.mem_ctrl.dram.peakBW                  12800.00                       # Theoretical peak bandwidth in MiByte/s
system.mem_ctrl.dram.busUtil                     0.11                       # Data bus utilization in percentage
system.mem_ctrl.dram.busUtilRead                 0.10                       # Data bus utilization in percentage for reads
system.mem_ctrl.dram.busUtilWrite                0.01                       # Data bus utilization in percentage for writes
system.mem_ctrl.dram.pageHitRate                78.25                       # Row buffer hit rate, read and write combined
system.mem_ctrl.dram.power_state.pwrStateResidencyTicks::UNDEFINED 1238427166000                       # Cumulative time (in ticks) in various power states
system.mem_ctrl.dram.rank0.actEnergy        296195760                       # Energy for activate commands per rank (pJ)
system.mem_ctrl.dram.rank0.preEnergy        157424190                       # Energy for precharge commands per rank (pJ)
system.mem_ctrl.dram.rank0.readEnergy      1392514200                       # Energy for read commands per rank (pJ)
system.mem_ctrl.dram.rank0.writeEnergy       83457360                       # Energy for write commands per rank (pJ)
system.mem_ctrl.dram.rank0.refreshEnergy 97760335920.000015                       # Energy for refresh commands per rank (pJ)
system.mem_ctrl.dram.rank0.actBackEnergy  91697809500                       # Energy for active background per rank (pJ)
system.mem_ctrl.dram.rank0.preBackEnergy 398336823840                       # Energy for precharge background per rank (pJ)
system.mem_ctrl.dram.rank0.actPowerDownEnergy            0                       # Energy for active power-down per rank (pJ)
system.mem_ctrl.dram.rank0.prePowerDownEnergy            0                       # Energy for precharge power-down per rank (pJ)
system.mem_ctrl.dram.rank0.selfRefreshEnergy            0                       # Energy for self refresh per rank (pJ)
system.mem_ctrl.dram.rank0.totalEnergy   589724560770                       # Total energy per rank (pJ)
system.mem_ctrl.dram.rank0.averagePower    476.188327                       # Core power per rank (mW)
system.mem_ctrl.dram.rank0.totalIdleTime            0                       # Total Idle time Per DRAM Rank
system.mem_ctrl.dram.rank0.pwrStateTime::IDLE 1034688076250                       # Time in different power states
system.mem_ctrl.dram.rank0.pwrStateTime::REF  41353780000                       # Time in different power states
system.mem_ctrl.dram.rank0.pwrStateTime::SREF            0                       # Time in different power states
system.mem_ctrl.dram.rank0.pwrStateTime::PRE_PDN            0                       # Time in different power states
system.mem_ctrl.dram.rank0.pwrStateTime::ACT 162385309750                       # Time in different power states
system.mem_ctrl.dram.rank0.pwrStateTime::ACT_PDN            0                       # Time in different power states
system.mem_ctrl.dram.rank1.actEnergy        131768700                       # Energy for activate commands per rank (pJ)
system.mem_ctrl.dram.rank1.preEnergy         70032930                       # Energy for precharge commands per rank (pJ)
system.mem_ctrl.dram.rank1.readEnergy       377541780                       # Energy for read commands per rank (pJ)
system.mem_ctrl.dram.rank1.writeEnergy       61021800                       # Energy for write commands per rank (pJ)
system.mem_ctrl.dram.rank1.refreshEnergy 97760335920.000015                       # Energy for refresh commands per rank (pJ)
system.mem_ctrl.dram.rank1.actBackEnergy  42722104770                       # Energy for active background per rank (pJ)
system.mem_ctrl.dram.rank1.preBackEnergy 439579522560                       # Energy for precharge background per rank (pJ)
system.mem_ctrl.dram.rank1.actPowerDownEnergy            0                       # Energy for active power-down per rank (pJ)
system.mem_ctrl.dram.rank1.prePowerDownEnergy            0                       # Energy for precharge power-down per rank (pJ)
system.mem_ctrl.dram.rank1.selfRefreshEnergy            0                       # Energy for self refresh per rank (pJ)
system.mem_ctrl.dram.rank1.totalEnergy   580702328460                       # Total energy per rank (pJ)
system.mem_ctrl.dram.rank1.averagePower    468.903093                       # Core power per rank (mW)
system.mem_ctrl.dram.rank1.totalIdleTime            0                       # Total Idle time Per DRAM Rank
system.mem_ctrl.dram.rank1.pwrStateTime::IDLE 1142367435000                       # Time in different power states
system.mem_ctrl.dram.rank1.pwrStateTime::REF  41353780000                       # Time in different power states
system.mem_ctrl.dram.rank1.pwrStateTime::SREF            0                       # Time in different power states
system.mem_ctrl.dram.rank1.pwrStateTime::PRE_PDN            0                       # Time in different power states
system.mem_ctrl.dram.rank1.pwrStateTime::ACT  54705951000                       # Time in different power states
system.mem_ctrl.dram.rank1.pwrStateTime::ACT_PDN            0                       # Time in different power states
system.mem_ctrl.power_state.pwrStateResidencyTicks::UNDEFINED 1238427166000                       # Cumulative time (in ticks) in various power states
system.membus.trans_dist::ReadResp             226421                       # Transaction distribution
system.membus.trans_dist::WritebackDirty        34122                       # Transaction distribution
system.membus.trans_dist::CleanEvict           205015                       # Transaction distribution
system.membus.trans_dist::ReadExReq             29138                       # Transaction distribution
system.membus.trans_dist::ReadExResp            29138                       # Transaction distribution
system.membus.trans_dist::ReadSharedReq        226421                       # Transaction distribution
system.membus.pkt_count_system.l2cache.mem_side_port::system.mem_ctrl.port       750255                       # Packet count per connected requestor and responder (bytes)
system.membus.pkt_count_system.l2cache.mem_side_port::total       750255                       # Packet count per connected requestor and responder (bytes)
system.membus.pkt_count::total                 750255                       # Packet count per connected requestor and responder (bytes)
system.membus.pkt_size_system.l2cache.mem_side_port::system.mem_ctrl.port     18539584                       # Cumulative packet size per connected requestor and responder (bytes)
system.membus.pkt_size_system.l2cache.mem_side_port::total     18539584                       # Cumulative packet size per connected requestor and responder (bytes)
system.membus.pkt_size::total                18539584                       # Cumulative packet size per connected requestor and responder (bytes)
system.membus.snoops                                0                       # Total snoops (count)
system.membus.snoopTraffic                          0                       # Total snoop traffic (bytes)
system.membus.snoop_fanout::samples            255559                       # Request fanout histogram
system.membus.snoop_fanout::mean                    0                       # Request fanout histogram
system.membus.snoop_fanout::stdev                   0                       # Request fanout histogram
system.membus.snoop_fanout::underflows              0      0.00%      0.00% # Request fanout histogram
system.membus.snoop_fanout::0                  255559    100.00%    100.00% # Request fanout histogram
system.membus.snoop_fanout::1                       0      0.00%    100.00% # Request fanout histogram
system.membus.snoop_fanout::overflows               0      0.00%    100.00% # Request fanout histogram
system.membus.snoop_fanout::min_value               0                       # Request fanout histogram
system.membus.snoop_fanout::max_value               0                       # Request fanout histogram
system.membus.snoop_fanout::total              255559                       # Request fanout histogram
system.membus.power_state.pwrStateResidencyTicks::UNDEFINED 1238427166000                       # Cumulative time (in ticks) in various power states
system.membus.reqLayer2.occupancy           631184000                       # Layer occupancy (ticks)
system.membus.reqLayer2.utilization               0.1                       # Layer utilization (%)
system.membus.respLayer0.occupancy         1352786500                       # Layer occupancy (ticks)
system.membus.respLayer0.utilization              0.1                       # Layer utilization (%)

---------- End Simulation Statistics   ----------
