
---------- Begin Simulation Statistics ----------
final_tick                                 9181677000                       # Number of ticks from beginning of simulation (restored from checkpoints and never reset)
host_inst_rate                                 436483                       # Simulator instruction rate (inst/s)
host_mem_usage                                 714924                       # Number of bytes of host memory used
host_op_rate                                   768984                       # Simulator op (including micro ops) rate (op/s)
host_seconds                                     5.33                       # Real time elapsed on the host
host_tick_rate                             1721802286                       # Simulator tick rate (ticks/s)
sim_freq                                 1000000000000                       # Frequency of simulated ticks
sim_insts                                     2327463                       # Number of instructions simulated
sim_ops                                       4100640                       # Number of ops (including micro ops) simulated
sim_seconds                                  0.009182                       # Number of seconds simulated
sim_ticks                                  9181677000                       # Number of ticks simulated
system.cpu.Branches                            369210                       # Number of branches fetched
system.cpu.committedInsts                     2327463                       # Number of instructions committed
system.cpu.committedOps                       4100640                       # Number of ops (including micro ops) committed
system.cpu.idle_fraction                     0.000000                       # Percentage of idle cycles
system.cpu.not_idle_fraction                 1.000000                       # Percentage of non-idle cycles
system.cpu.numCycles                          9181677                       # number of cpu cycles simulated
system.cpu.numWorkItemsCompleted                    0                       # number of work items this cpu completed
system.cpu.numWorkItemsStarted                      0                       # number of work items this cpu started
system.cpu.num_busy_cycles               9181676.999000                       # Number of busy cycles
system.cpu.num_cc_register_reads              2310030                       # number of times the CC registers were read
system.cpu.num_cc_register_writes             1841115                       # number of times the CC registers were written
system.cpu.num_conditional_control_insts       322667                       # number of instructions that are conditional controls
system.cpu.num_fp_alu_accesses                  92075                       # Number of float alu accesses
system.cpu.num_fp_insts                         92075                       # number of float instructions
system.cpu.num_fp_register_reads               127736                       # number of times the floating registers were read
system.cpu.num_fp_register_writes               68068                       # number of times the floating registers were written
system.cpu.num_func_calls                       23798                       # number of times a function call or return occured
system.cpu.num_idle_cycles                   0.001000                       # Number of idle cycles
system.cpu.num_int_alu_accesses               4026512                       # Number of integer alu accesses
system.cpu.num_int_insts                      4026512                       # number of integer instructions
system.cpu.num_int_register_reads             8091138                       # number of times the integer registers were read
system.cpu.num_int_register_writes            3518772                       # number of times the integer registers were written
system.cpu.num_load_insts                      529301                       # Number of load instructions
system.cpu.num_mem_refs                        731616                       # number of memory refs
system.cpu.num_store_insts                     202315                       # Number of store instructions
system.cpu.num_vec_alu_accesses                     0                       # Number of vector alu accesses
system.cpu.num_vec_insts                            0                       # number of vector instructions
system.cpu.num_vec_register_reads                   0                       # number of times the vector registers were read
system.cpu.num_vec_register_writes                  0                       # number of times the vector registers were written
system.cpu.op_class::No_OpClass                 27048      0.66%      0.66% # Class of executed instruction
system.cpu.op_class::IntAlu                   3248234     79.21%     79.87% # Class of executed instruction
system.cpu.op_class::IntMult                       48      0.00%     79.87% # Class of executed instruction
system.cpu.op_class::IntDiv                     38408      0.94%     80.80% # Class of executed instruction
system.cpu.op_class::FloatAdd                    5832      0.14%     80.95% # Class of executed instruction
system.cpu.op_class::FloatCmp                       0      0.00%     80.95% # Class of executed instruction
system.cpu.op_class::FloatCvt                    1680      0.04%     80.99% # Class of executed instruction
system.cpu.op_class::FloatMult                      0      0.00%     80.99% # Class of executed instruction
system.cpu.op_class::FloatMultAcc                   0      0.00%     80.99% # Class of executed instruction
system.cpu.op_class::FloatDiv                       0      0.00%     80.99% # Class of executed instruction
system.cpu.op_class::FloatMisc                      0      0.00%     80.99% # Class of executed instruction
system.cpu.op_class::FloatSqrt                      0      0.00%     80.99% # Class of executed instruction
system.cpu.op_class::SimdAdd                     7114      0.17%     81.16% # Class of executed instruction
system.cpu.op_class::SimdAddAcc                     0      0.00%     81.16% # Class of executed instruction
system.cpu.op_class::SimdAlu                    12803      0.31%     81.47% # Class of executed instruction
system.cpu.op_class::SimdCmp                       12      0.00%     81.47% # Class of executed instruction
system.cpu.op_class::SimdCvt                    14652      0.36%     81.83% # Class of executed instruction
system.cpu.op_class::SimdMisc                   12655      0.31%     82.14% # Class of executed instruction
system.cpu.op_class::SimdMult                       0      0.00%     82.14% # Class of executed instruction
system.cpu.op_class::SimdMultAcc                    0      0.00%     82.14% # Class of executed instruction
system.cpu.op_class::SimdShift                    884      0.02%     82.16% # Class of executed instruction
system.cpu.op_class::SimdShiftAcc                   0      0.00%     82.16% # Class of executed instruction
system.cpu.op_class::SimdDiv                        0      0.00%     82.16% # Class of executed instruction
system.cpu.op_class::SimdSqrt                       0      0.00%     82.16% # Class of executed instruction
system.cpu.op_class::SimdFloatAdd                   0      0.00%     82.16% # Class of executed instruction
system.cpu.op_class::SimdFloatAlu                   0      0.00%     82.16% # Class of executed instruction
system.cpu.op_class::SimdFloatCmp                   0      0.00%     82.16% # Class of executed instruction
system.cpu.op_class::SimdFloatCvt                   0      0.00%     82.16% # Class of executed instruction
system.cpu.op_class::SimdFloatDiv                   0      0.00%     82.16% # Class of executed instruction
system.cpu.op_class::SimdFloatMisc                  0      0.00%     82.16% # Class of executed instruction
system.cpu.op_class::SimdFloatMult                  0      0.00%     82.16% # Class of executed instruction
system.cpu.op_class::SimdFloatMultAcc               0      0.00%     82.16% # Class of executed instruction
system.cpu.op_class::SimdFloatSqrt                  0      0.00%     82.16% # Class of executed instruction
system.cpu.op_class::SimdReduceAdd                  0      0.00%     82.16% # Class of executed instruction
system.cpu.op_class::SimdReduceAlu                  0      0.00%     82.16% # Class of executed instruction
system.cpu.op_class::SimdReduceCmp                  0      0.00%     82.16% # Class of executed instruction
system.cpu.op_class::SimdFloatReduceAdd             0      0.00%     82.16% # Class of executed instruction
system.cpu.op_class::SimdFloatReduceCmp             0      0.00%     82.16% # Class of executed instruction
system.cpu.op_class::SimdAes                        0      0.00%     82.16% # Class of executed instruction
system.cpu.op_class::SimdAesMix                     0      0.00%     82.16% # Class of executed instruction
system.cpu.op_class::SimdSha1Hash                   0      0.00%     82.16% # Class of executed instruction
system.cpu.op_class::SimdSha1Hash2                  0      0.00%     82.16% # Class of executed instruction
system.cpu.op_class::SimdSha256Hash                 0      0.00%     82.16% # Class of executed instruction
system.cpu.op_class::SimdSha256Hash2                0      0.00%     82.16% # Class of executed instruction
system.cpu.op_class::SimdShaSigma2                  0      0.00%     82.16% # Class of executed instruction
system.cpu.op_class::SimdShaSigma3                  0      0.00%     82.16% # Class of executed instruction
system.cpu.op_class::SimdPredAlu                    0      0.00%     82.16% # Class of executed instruction
system.cpu.op_class::MemRead                   510454     12.45%     94.61% # Class of executed instruction
system.cpu.op_class::MemWrite                  187530      4.57%     99.18% # Class of executed instruction
system.cpu.op_class::FloatMemRead               18847      0.46%     99.64% # Class of executed instruction
system.cpu.op_class::FloatMemWrite              14785      0.36%    100.00% # Class of executed instruction
system.cpu.op_class::IprAccess                      0      0.00%    100.00% # Class of executed instruction
system.cpu.op_class::InstPrefetch                   0      0.00%    100.00% # Class of executed instruction
system.cpu.op_class::total                    4100986                       # Class of executed instruction
system.cpu.workload.numSyscalls                    93                       # Number of system calls
system.l2bus.snoop_filter.hit_multi_requests            0                       # Number of requests hitting in the snoop filter with multiple (>1) holders of the requested data.
system.l2bus.snoop_filter.hit_multi_snoops            0                       # Number of snoops hitting in the snoop filter with multiple (>1) holders of the requested data.
system.l2bus.snoop_filter.hit_single_requests        16922                       # Number of requests hitting in the snoop filter with a single holder of the requested data.
system.l2bus.snoop_filter.hit_single_snoops          194                       # Number of snoops hitting in the snoop filter with a single holder of the requested data.
system.l2bus.snoop_filter.tot_requests          35124                       # Total number of requests made to the snoop filter.
system.l2bus.snoop_filter.tot_snoops              194                       # Total number of snoops made to the snoop filter.
system.membus.snoop_filter.hit_multi_requests            0                       # Number of requests hitting in the snoop filter with multiple (>1) holders of the requested data.
system.membus.snoop_filter.hit_multi_snoops            0                       # Number of snoops hitting in the snoop filter with multiple (>1) holders of the requested data.
system.membus.snoop_filter.hit_single_requests         3998                       # Number of requests hitting in the snoop filter with a single holder of the requested data.
system.membus.snoop_filter.hit_single_snoops            0                       # Number of snoops hitting in the snoop filter with a single holder of the requested data.
system.membus.snoop_filter.tot_requests         16186                       # Total number of requests made to the snoop filter.
system.membus.snoop_filter.tot_snoops               0                       # Total number of snoops made to the snoop filter.
system.clk_domain.clock                          1000                       # Clock period in ticks
system.clk_domain.voltage_domain.voltage            1                       # Voltage in Volts
system.cpu.dcache.demand_hits::.cpu.data       715951                       # number of demand (read+write) hits
system.cpu.dcache.demand_hits::total           715951                       # number of demand (read+write) hits
system.cpu.dcache.overall_hits::.cpu.data       715951                       # number of overall hits
system.cpu.dcache.overall_hits::total          715951                       # number of overall hits
system.cpu.dcache.demand_misses::.cpu.data        15456                       # number of demand (read+write) misses
system.cpu.dcache.demand_misses::total          15456                       # number of demand (read+write) misses
system.cpu.dcache.overall_misses::.cpu.data        15456                       # number of overall misses
system.cpu.dcache.overall_misses::total         15456                       # number of overall misses
system.cpu.dcache.demand_miss_latency::.cpu.data   1237411000                       # number of demand (read+write) miss cycles
system.cpu.dcache.demand_miss_latency::total   1237411000                       # number of demand (read+write) miss cycles
system.cpu.dcache.overall_miss_latency::.cpu.data   1237411000                       # number of overall miss cycles
system.cpu.dcache.overall_miss_latency::total   1237411000                       # number of overall miss cycles
system.cpu.dcache.demand_accesses::.cpu.data       731407                       # number of demand (read+write) accesses
system.cpu.dcache.demand_accesses::total       731407                       # number of demand (read+write) accesses
system.cpu.dcache.overall_accesses::.cpu.data       731407                       # number of overall (read+write) accesses
system.cpu.dcache.overall_accesses::total       731407                       # number of overall (read+write) accesses
system.cpu.dcache.demand_miss_rate::.cpu.data     0.021132                       # miss rate for demand accesses
system.cpu.dcache.demand_miss_rate::total     0.021132                       # miss rate for demand accesses
system.cpu.dcache.overall_miss_rate::.cpu.data     0.021132                       # miss rate for overall accesses
system.cpu.dcache.overall_miss_rate::total     0.021132                       # miss rate for overall accesses
system.cpu.dcache.demand_avg_miss_latency::.cpu.data 80060.235507                       # average overall miss latency
system.cpu.dcache.demand_avg_miss_latency::total 80060.235507                       # average overall miss latency
system.cpu.dcache.overall_avg_miss_latency::.cpu.data 80060.235507                       # average overall miss latency
system.cpu.dcache.overall_avg_miss_latency::total 80060.235507                       # average overall miss latency
system.cpu.dcache.blocked_cycles::no_mshrs            0                       # number of cycles access was blocked
system.cpu.dcache.blocked_cycles::no_targets            0                       # number of cycles access was blocked
system.cpu.dcache.blocked::no_mshrs                 0                       # number of cycles access was blocked
system.cpu.dcache.blocked::no_targets               0                       # number of cycles access was blocked
system.cpu.dcache.avg_blocked_cycles::no_mshrs          nan                       # average number of cycles each access was blocked
system.cpu.dcache.avg_blocked_cycles::no_targets          nan                       # average number of cycles each access was blocked
system.cpu.dcache.writebacks::.writebacks         3053                       # number of writebacks
system.cpu.dcache.writebacks::total              3053                       # number of writebacks
system.cpu.dcache.demand_mshr_misses::.cpu.data        15456                       # number of demand (read+write) MSHR misses
system.cpu.dcache.demand_mshr_misses::total        15456                       # number of demand (read+write) MSHR misses
system.cpu.dcache.overall_mshr_misses::.cpu.data        15456                       # number of overall MSHR misses
system.cpu.dcache.overall_mshr_misses::total        15456                       # number of overall MSHR misses
system.cpu.dcache.demand_mshr_miss_latency::.cpu.data   1206499000                       # number of demand (read+write) MSHR miss cycles
system.cpu.dcache.demand_mshr_miss_latency::total   1206499000                       # number of demand (read+write) MSHR miss cycles
system.cpu.dcache.overall_mshr_miss_latency::.cpu.data   1206499000                       # number of overall MSHR miss cycles
system.cpu.dcache.overall_mshr_miss_latency::total   1206499000                       # number of overall MSHR miss cycles
system.cpu.dcache.demand_mshr_miss_rate::.cpu.data     0.021132                       # mshr miss rate for demand accesses
system.cpu.dcache.demand_mshr_miss_rate::total     0.021132                       # mshr miss rate for demand accesses
system.cpu.dcache.overall_mshr_miss_rate::.cpu.data     0.021132                       # mshr miss rate for overall accesses
system.cpu.dcache.overall_mshr_miss_rate::total     0.021132                       # mshr miss rate for overall accesses
system.cpu.dcache.demand_avg_mshr_miss_latency::.cpu.data 78060.235507                       # average overall mshr miss latency
system.cpu.dcache.demand_avg_mshr_miss_latency::total 78060.235507                       # average overall mshr miss latency
system.cpu.dcache.overall_avg_mshr_miss_latency::.cpu.data 78060.235507                       # average overall mshr miss latency
system.cpu.dcache.overall_avg_mshr_miss_latency::total 78060.235507                       # average overall mshr miss latency
system.cpu.dcache.replacements                  14432                       # number of replacements
system.cpu.dcache.ReadReq_hits::.cpu.data       516025                       # number of ReadReq hits
system.cpu.dcache.ReadReq_hits::total          516025                       # number of ReadReq hits
system.cpu.dcache.ReadReq_misses::.cpu.data        13084                       # number of ReadReq misses
system.cpu.dcache.ReadReq_misses::total         13084                       # number of ReadReq misses
system.cpu.dcache.ReadReq_miss_latency::.cpu.data   1044503000                       # number of ReadReq miss cycles
system.cpu.dcache.ReadReq_miss_latency::total   1044503000                       # number of ReadReq miss cycles
system.cpu.dcache.ReadReq_accesses::.cpu.data       529109                       # number of ReadReq accesses(hits+misses)
system.cpu.dcache.ReadReq_accesses::total       529109                       # number of ReadReq accesses(hits+misses)
system.cpu.dcache.ReadReq_miss_rate::.cpu.data     0.024728                       # miss rate for ReadReq accesses
system.cpu.dcache.ReadReq_miss_rate::total     0.024728                       # miss rate for ReadReq accesses
system.cpu.dcache.ReadReq_avg_miss_latency::.cpu.data 79830.556405                       # average ReadReq miss latency
system.cpu.dcache.ReadReq_avg_miss_latency::total 79830.556405                       # average ReadReq miss latency
system.cpu.dcache.ReadReq_mshr_misses::.cpu.data        13084                       # number of ReadReq MSHR misses
system.cpu.dcache.ReadReq_mshr_misses::total        13084                       # number of ReadReq MSHR misses
system.cpu.dcache.ReadReq_mshr_miss_latency::.cpu.data   1018335000                       # number of ReadReq MSHR miss cycles
system.cpu.dcache.ReadReq_mshr_miss_latency::total   1018335000                       # number of ReadReq MSHR miss cycles
system.cpu.dcache.ReadReq_mshr_miss_rate::.cpu.data     0.024728                       # mshr miss rate for ReadReq accesses
system.cpu.dcache.ReadReq_mshr_miss_rate::total     0.024728                       # mshr miss rate for ReadReq accesses
system.cpu.dcache.ReadReq_avg_mshr_miss_latency::.cpu.data 77830.556405                       # average ReadReq mshr miss latency
system.cpu.dcache.ReadReq_avg_mshr_miss_latency::total 77830.556405                       # average ReadReq mshr miss latency
system.cpu.dcache.WriteReq_hits::.cpu.data       199926                       # number of WriteReq hits
system.cpu.dcache.WriteReq_hits::total         199926                       # number of WriteReq hits
system.cpu.dcache.WriteReq_misses::.cpu.data         2372                       # number of WriteReq misses
system.cpu.dcache.WriteReq_misses::total         2372                       # number of WriteReq misses
system.cpu.dcache.WriteReq_miss_latency::.cpu.data    192908000                       # number of WriteReq miss cycles
system.cpu.dcache.WriteReq_miss_latency::total    192908000                       # number of WriteReq miss cycles
system.cpu.dcache.WriteReq_accesses::.cpu.data       202298                       # number of WriteReq accesses(hits+misses)
system.cpu.dcache.WriteReq_accesses::total       202298                       # number of WriteReq accesses(hits+misses)
system.cpu.dcache.WriteReq_miss_rate::.cpu.data     0.011725                       # miss rate for WriteReq accesses
system.cpu.dcache.WriteReq_miss_rate::total     0.011725                       # miss rate for WriteReq accesses
system.cpu.dcache.WriteReq_avg_miss_latency::.cpu.data 81327.150084                       # average WriteReq miss latency
system.cpu.dcache.WriteReq_avg_miss_latency::total 81327.150084                       # average WriteReq miss latency
system.cpu.dcache.WriteReq_mshr_misses::.cpu.data         2372                       # number of WriteReq MSHR misses
system.cpu.dcache.WriteReq_mshr_misses::total         2372                       # number of WriteReq MSHR misses
system.cpu.dcache.WriteReq_mshr_miss_latency::.cpu.data    188164000                       # number of WriteReq MSHR miss cycles
system.cpu.dcache.WriteReq_mshr_miss_latency::total    188164000                       # number of WriteReq MSHR miss cycles
system.cpu.dcache.WriteReq_mshr_miss_rate::.cpu.data     0.011725                       # mshr miss rate for WriteReq accesses
system.cpu.dcache.WriteReq_mshr_miss_rate::total     0.011725                       # mshr miss rate for WriteReq accesses
system.cpu.dcache.WriteReq_avg_mshr_miss_latency::.cpu.data 79327.150084                       # average WriteReq mshr miss latency
system.cpu.dcache.WriteReq_avg_mshr_miss_latency::total 79327.150084                       # average WriteReq mshr miss latency
system.cpu.dcache.power_state.pwrStateResidencyTicks::UNDEFINED   9181677000                       # Cumulative time (in ticks) in various power states
system.cpu.dcache.tags.tagsinuse           997.430308                       # Cycle average of tags in use
system.cpu.dcache.tags.total_refs              731407                       # Total number of references to valid blocks.
system.cpu.dcache.tags.sampled_refs             15456                       # Sample count of references to valid blocks.
system.cpu.dcache.tags.avg_refs             47.321881                       # Average number of references to valid blocks.
system.cpu.dcache.tags.warmup_cycle            218000                       # Cycle when the warmup percentage was hit.
system.cpu.dcache.tags.occ_blocks::.cpu.data   997.430308                       # Average occupied blocks per requestor
system.cpu.dcache.tags.occ_percent::.cpu.data     0.974053                       # Average percentage of cache occupancy
system.cpu.dcache.tags.occ_percent::total     0.974053                       # Average percentage of cache occupancy
system.cpu.dcache.tags.occ_task_id_blocks::1024         1024                       # Occupied blocks per task id
system.cpu.dcache.tags.age_task_id_blocks_1024::0           23                       # Occupied blocks per task id
system.cpu.dcache.tags.age_task_id_blocks_1024::1          127                       # Occupied blocks per task id
system.cpu.dcache.tags.age_task_id_blocks_1024::2          851                       # Occupied blocks per task id
system.cpu.dcache.tags.age_task_id_blocks_1024::3           23                       # Occupied blocks per task id
system.cpu.dcache.tags.occ_task_id_percent::1024            1                       # Percentage of cache occupancy per task id
system.cpu.dcache.tags.tag_accesses           1478270                       # Number of tag accesses
system.cpu.dcache.tags.data_accesses          1478270                       # Number of data accesses
system.cpu.dcache.tags.power_state.pwrStateResidencyTicks::UNDEFINED   9181677000                       # Cumulative time (in ticks) in various power states
system.cpu.dtb.rdAccesses                      529331                       # TLB accesses on read requests
system.cpu.dtb.wrAccesses                      202329                       # TLB accesses on write requests
system.cpu.dtb.rdMisses                          1501                       # TLB misses on read requests
system.cpu.dtb.wrMisses                           105                       # TLB misses on write requests
system.cpu.dtb.walker.power_state.pwrStateResidencyTicks::UNDEFINED   9181677000                       # Cumulative time (in ticks) in various power states
system.cpu.icache.demand_hits::.cpu.inst      3146236                       # number of demand (read+write) hits
system.cpu.icache.demand_hits::total          3146236                       # number of demand (read+write) hits
system.cpu.icache.overall_hits::.cpu.inst      3146236                       # number of overall hits
system.cpu.icache.overall_hits::total         3146236                       # number of overall hits
system.cpu.icache.demand_misses::.cpu.inst         2746                       # number of demand (read+write) misses
system.cpu.icache.demand_misses::total           2746                       # number of demand (read+write) misses
system.cpu.icache.overall_misses::.cpu.inst         2746                       # number of overall misses
system.cpu.icache.overall_misses::total          2746                       # number of overall misses
system.cpu.icache.demand_miss_latency::.cpu.inst    219950000                       # number of demand (read+write) miss cycles
system.cpu.icache.demand_miss_latency::total    219950000                       # number of demand (read+write) miss cycles
system.cpu.icache.overall_miss_latency::.cpu.inst    219950000                       # number of overall miss cycles
system.cpu.icache.overall_miss_latency::total    219950000                       # number of overall miss cycles
system.cpu.icache.demand_accesses::.cpu.inst      3148982                       # number of demand (read+write) accesses
system.cpu.icache.demand_accesses::total      3148982                       # number of demand (read+write) accesses
system.cpu.icache.overall_accesses::.cpu.inst      3148982                       # number of overall (read+write) accesses
system.cpu.icache.overall_accesses::total      3148982                       # number of overall (read+write) accesses
system.cpu.icache.demand_miss_rate::.cpu.inst     0.000872                       # miss rate for demand accesses
system.cpu.icache.demand_miss_rate::total     0.000872                       # miss rate for demand accesses
system.cpu.icache.overall_miss_rate::.cpu.inst     0.000872                       # miss rate for overall accesses
system.cpu.icache.overall_miss_rate::total     0.000872                       # miss rate for overall accesses
system.cpu.icache.demand_avg_miss_latency::.cpu.inst 80098.324836                       # average overall miss latency
system.cpu.icache.demand_avg_miss_latency::total 80098.324836                       # average overall miss latency
system.cpu.icache.overall_avg_miss_latency::.cpu.inst 80098.324836                       # average overall miss latency
system.cpu.icache.overall_avg_miss_latency::total 80098.324836                       # average overall miss latency
system.cpu.icache.blocked_cycles::no_mshrs            0                       # number of cycles access was blocked
system.cpu.icache.blocked_cycles::no_targets            0                       # number of cycles access was blocked
system.cpu.icache.blocked::no_mshrs                 0                       # number of cycles access was blocked
system.cpu.icache.blocked::no_targets               0                       # number of cycles access was blocked
system.cpu.icache.avg_blocked_cycles::no_mshrs          nan                       # average number of cycles each access was blocked
system.cpu.icache.avg_blocked_cycles::no_targets          nan                       # average number of cycles each access was blocked
system.cpu.icache.demand_mshr_misses::.cpu.inst         2746                       # number of demand (read+write) MSHR misses
system.cpu.icache.demand_mshr_misses::total         2746                       # number of demand (read+write) MSHR misses
system.cpu.icache.overall_mshr_misses::.cpu.inst         2746                       # number of overall MSHR misses
system.cpu.icache.overall_mshr_misses::total         2746                       # number of overall MSHR misses
system.cpu.icache.demand_mshr_miss_latency::.cpu.inst    214458000                       # number of demand (read+write) MSHR miss cycles
system.cpu.icache.demand_mshr_miss_latency::total    214458000                       # number of demand (read+write) MSHR miss cycles
system.cpu.icache.overall_mshr_miss_latency::.cpu.inst    214458000                       # number of overall MSHR miss cycles
system.cpu.icache.overall_mshr_miss_latency::total    214458000                       # number of overall MSHR miss cycles
system.cpu.icache.demand_mshr_miss_rate::.cpu.inst     0.000872                       # mshr miss rate for demand accesses
system.cpu.icache.demand_mshr_miss_rate::total     0.000872                       # mshr miss rate for demand accesses
system.cpu.icache.overall_mshr_miss_rate::.cpu.inst     0.000872                       # mshr miss rate for overall accesses
system.cpu.icache.overall_mshr_miss_rate::total     0.000872                       # mshr miss rate for overall accesses
system.cpu.icache.demand_avg_mshr_miss_latency::.cpu.inst 78098.324836                       # average overall mshr miss latency
system.cpu.icache.demand_avg_mshr_miss_latency::total 78098.324836                       # average overall mshr miss latency
system.cpu.icache.overall_avg_mshr_miss_latency::.cpu.inst 78098.324836                       # average overall mshr miss latency
system.cpu.icache.overall_avg_mshr_miss_latency::total 78098.324836                       # average overall mshr miss latency
system.cpu.icache.replacements                   2490                       # number of replacements
system.cpu.icache.ReadReq_hits::.cpu.inst      3146236                       # number of ReadReq hits
system.cpu.icache.ReadReq_hits::total         3146236                       # number of ReadReq hits
system.cpu.icache.ReadReq_misses::.cpu.inst         2746                       # number of ReadReq misses
system.cpu.icache.ReadReq_misses::total          2746                       # number of ReadReq misses
system.cpu.icache.ReadReq_miss_latency::.cpu.inst    219950000                       # number of ReadReq miss cycles
system.cpu.icache.ReadReq_miss_latency::total    219950000                       # number of ReadReq miss cycles
system.cpu.icache.ReadReq_accesses::.cpu.inst      3148982                       # number of ReadReq accesses(hits+misses)
system.cpu.icache.ReadReq_accesses::total      3148982                       # number of ReadReq accesses(hits+misses)
system.cpu.icache.ReadReq_miss_rate::.cpu.inst     0.000872                       # miss rate for ReadReq accesses
system.cpu.icache.ReadReq_miss_rate::total     0.000872                       # miss rate for ReadReq accesses
system.cpu.icache.ReadReq_avg_miss_latency::.cpu.inst 80098.324836                       # average ReadReq miss latency
system.cpu.icache.ReadReq_avg_miss_latency::total 80098.324836                       # average ReadReq miss latency
system.cpu.icache.ReadReq_mshr_misses::.cpu.inst         2746                       # number of ReadReq MSHR misses
system.cpu.icache.ReadReq_mshr_misses::total         2746                       # number of ReadReq MSHR misses
system.cpu.icache.ReadReq_mshr_miss_latency::.cpu.inst    214458000                       # number of ReadReq MSHR miss cycles
system.cpu.icache.ReadReq_mshr_miss_latency::total    214458000                       # number of ReadReq MSHR miss cycles
system.cpu.icache.ReadReq_mshr_miss_rate::.cpu.inst     0.000872                       # mshr miss rate for ReadReq accesses
system.cpu.icache.ReadReq_mshr_miss_rate::total     0.000872                       # mshr miss rate for ReadReq accesses
system.cpu.icache.ReadReq_avg_mshr_miss_latency::.cpu.inst 78098.324836                       # average ReadReq mshr miss latency
system.cpu.icache.ReadReq_avg_mshr_miss_latency::total 78098.324836                       # average ReadReq mshr miss latency
system.cpu.icache.power_state.pwrStateResidencyTicks::UNDEFINED   9181677000                       # Cumulative time (in ticks) in various power states
system.cpu.icache.tags.tagsinuse           252.684421                       # Cycle average of tags in use
system.cpu.icache.tags.total_refs             3148982                       # Total number of references to valid blocks.
system.cpu.icache.tags.sampled_refs              2746                       # Sample count of references to valid blocks.
system.cpu.icache.tags.avg_refs           1146.752367                       # Average number of references to valid blocks.
system.cpu.icache.tags.warmup_cycle            107000                       # Cycle when the warmup percentage was hit.
system.cpu.icache.tags.occ_blocks::.cpu.inst   252.684421                       # Average occupied blocks per requestor
system.cpu.icache.tags.occ_percent::.cpu.inst     0.987049                       # Average percentage of cache occupancy
system.cpu.icache.tags.occ_percent::total     0.987049                       # Average percentage of cache occupancy
system.cpu.icache.tags.occ_task_id_blocks::1024          256                       # Occupied blocks per task id
system.cpu.icache.tags.age_task_id_blocks_1024::0           49                       # Occupied blocks per task id
system.cpu.icache.tags.age_task_id_blocks_1024::1          109                       # Occupied blocks per task id
system.cpu.icache.tags.age_task_id_blocks_1024::2           91                       # Occupied blocks per task id
system.cpu.icache.tags.age_task_id_blocks_1024::3            7                       # Occupied blocks per task id
system.cpu.icache.tags.occ_task_id_percent::1024            1                       # Percentage of cache occupancy per task id
system.cpu.icache.tags.tag_accesses           6300710                       # Number of tag accesses
system.cpu.icache.tags.data_accesses          6300710                       # Number of data accesses
system.cpu.icache.tags.power_state.pwrStateResidencyTicks::UNDEFINED   9181677000                       # Cumulative time (in ticks) in various power states
system.cpu.interrupts.clk_domain.clock          16000                       # Clock period in ticks
system.cpu.itb.rdAccesses                           0                       # TLB accesses on read requests
system.cpu.itb.wrAccesses                     3149112                       # TLB accesses on write requests
system.cpu.itb.rdMisses                             0                       # TLB misses on read requests
system.cpu.itb.wrMisses                           466                       # TLB misses on write requests
system.cpu.itb.walker.power_state.pwrStateResidencyTicks::UNDEFINED   9181677000                       # Cumulative time (in ticks) in various power states
system.cpu.power_state.pwrStateResidencyTicks::ON   9181677000                       # Cumulative time (in ticks) in various power states
system.cpu.thread_0.numInsts                        0                       # Number of Instructions committed
system.cpu.thread_0.numOps                          0                       # Number of Ops committed
system.cpu.thread_0.numMemRefs                      0                       # Number of Memory References
system.l2bus.trans_dist::ReadResp               15830                       # Transaction distribution
system.l2bus.trans_dist::WritebackDirty          3951                       # Transaction distribution
system.l2bus.trans_dist::CleanEvict             16990                       # Transaction distribution
system.l2bus.trans_dist::ReadExReq               2372                       # Transaction distribution
system.l2bus.trans_dist::ReadExResp              2372                       # Transaction distribution
system.l2bus.trans_dist::ReadSharedReq          15830                       # Transaction distribution
system.l2bus.pkt_count_system.cpu.icache.mem_side_port::system.l2cache.cpu_side_port         7982                       # Packet count per connected requestor and responder (bytes)
system.l2bus.pkt_count_system.cpu.dcache.mem_side_port::system.l2cache.cpu_side_port        45344                       # Packet count per connected requestor and responder (bytes)
system.l2bus.pkt_count::total                   53326                       # Packet count per connected requestor and responder (bytes)
system.l2bus.pkt_size_system.cpu.icache.mem_side_port::system.l2cache.cpu_side_port       175744                       # Cumulative packet size per connected requestor and responder (bytes)
system.l2bus.pkt_size_system.cpu.dcache.mem_side_port::system.l2cache.cpu_side_port      1184576                       # Cumulative packet size per connected requestor and responder (bytes)
system.l2bus.pkt_size::total                  1360320                       # Cumulative packet size per connected requestor and responder (bytes)
system.l2bus.snoops                              4019                       # Total snoops (count)
system.l2bus.snoopTraffic                       57472                       # Total snoop traffic (bytes)
system.l2bus.snoop_fanout::samples              22221                       # Request fanout histogram
system.l2bus.snoop_fanout::mean              0.008730                       # Request fanout histogram
system.l2bus.snoop_fanout::stdev             0.093030                       # Request fanout histogram
system.l2bus.snoop_fanout::underflows               0      0.00%      0.00% # Request fanout histogram
system.l2bus.snoop_fanout::0                    22027     99.13%     99.13% # Request fanout histogram
system.l2bus.snoop_fanout::1                      194      0.87%    100.00% # Request fanout histogram
system.l2bus.snoop_fanout::2                        0      0.00%    100.00% # Request fanout histogram
system.l2bus.snoop_fanout::overflows                0      0.00%    100.00% # Request fanout histogram
system.l2bus.snoop_fanout::min_value                0                       # Request fanout histogram
system.l2bus.snoop_fanout::max_value                1                       # Request fanout histogram
system.l2bus.snoop_fanout::total                22221                       # Request fanout histogram
system.l2bus.power_state.pwrStateResidencyTicks::UNDEFINED   9181677000                       # Cumulative time (in ticks) in various power states
system.l2bus.reqLayer0.occupancy             41230000                       # Layer occupancy (ticks)
system.l2bus.reqLayer0.utilization                0.4                       # Layer utilization (%)
system.l2bus.respLayer0.occupancy             8238000                       # Layer occupancy (ticks)
system.l2bus.respLayer0.utilization               0.1                       # Layer utilization (%)
system.l2bus.respLayer1.occupancy            46368000                       # Layer occupancy (ticks)
system.l2bus.respLayer1.utilization               0.5                       # Layer utilization (%)
system.l2cache.demand_hits::.cpu.inst             853                       # number of demand (read+write) hits
system.l2cache.demand_hits::.cpu.data            5161                       # number of demand (read+write) hits
system.l2cache.demand_hits::total                6014                       # number of demand (read+write) hits
system.l2cache.overall_hits::.cpu.inst            853                       # number of overall hits
system.l2cache.overall_hits::.cpu.data           5161                       # number of overall hits
system.l2cache.overall_hits::total               6014                       # number of overall hits
system.l2cache.demand_misses::.cpu.inst          1893                       # number of demand (read+write) misses
system.l2cache.demand_misses::.cpu.data         10295                       # number of demand (read+write) misses
system.l2cache.demand_misses::total             12188                       # number of demand (read+write) misses
system.l2cache.overall_misses::.cpu.inst         1893                       # number of overall misses
system.l2cache.overall_misses::.cpu.data        10295                       # number of overall misses
system.l2cache.overall_misses::total            12188                       # number of overall misses
system.l2cache.demand_miss_latency::.cpu.inst    188287000                       # number of demand (read+write) miss cycles
system.l2cache.demand_miss_latency::.cpu.data   1051749000                       # number of demand (read+write) miss cycles
system.l2cache.demand_miss_latency::total   1240036000                       # number of demand (read+write) miss cycles
system.l2cache.overall_miss_latency::.cpu.inst    188287000                       # number of overall miss cycles
system.l2cache.overall_miss_latency::.cpu.data   1051749000                       # number of overall miss cycles
system.l2cache.overall_miss_latency::total   1240036000                       # number of overall miss cycles
system.l2cache.demand_accesses::.cpu.inst         2746                       # number of demand (read+write) accesses
system.l2cache.demand_accesses::.cpu.data        15456                       # number of demand (read+write) accesses
system.l2cache.demand_accesses::total           18202                       # number of demand (read+write) accesses
system.l2cache.overall_accesses::.cpu.inst         2746                       # number of overall (read+write) accesses
system.l2cache.overall_accesses::.cpu.data        15456                       # number of overall (read+write) accesses
system.l2cache.overall_accesses::total          18202                       # number of overall (read+write) accesses
system.l2cache.demand_miss_rate::.cpu.inst     0.689366                       # miss rate for demand accesses
system.l2cache.demand_miss_rate::.cpu.data     0.666084                       # miss rate for demand accesses
system.l2cache.demand_miss_rate::total       0.669597                       # miss rate for demand accesses
system.l2cache.overall_miss_rate::.cpu.inst     0.689366                       # miss rate for overall accesses
system.l2cache.overall_miss_rate::.cpu.data     0.666084                       # miss rate for overall accesses
system.l2cache.overall_miss_rate::total      0.669597                       # miss rate for overall accesses
system.l2cache.demand_avg_miss_latency::.cpu.inst 99464.870576                       # average overall miss latency
system.l2cache.demand_avg_miss_latency::.cpu.data 102161.146187                       # average overall miss latency
system.l2cache.demand_avg_miss_latency::total 101742.369544                       # average overall miss latency
system.l2cache.overall_avg_miss_latency::.cpu.inst 99464.870576                       # average overall miss latency
system.l2cache.overall_avg_miss_latency::.cpu.data 102161.146187                       # average overall miss latency
system.l2cache.overall_avg_miss_latency::total 101742.369544                       # average overall miss latency
system.l2cache.blocked_cycles::no_mshrs             0                       # number of cycles access was blocked
system.l2cache.blocked_cycles::no_targets            0                       # number of cycles access was blocked
system.l2cache.blocked::no_mshrs                    0                       # number of cycles access was blocked
system.l2cache.blocked::no_targets                  0                       # number of cycles access was blocked
system.l2cache.avg_blocked_cycles::no_mshrs          nan                       # average number of cycles each access was blocked
system.l2cache.avg_blocked_cycles::no_targets          nan                       # average number of cycles each access was blocked
system.l2cache.writebacks::.writebacks            898                       # number of writebacks
system.l2cache.writebacks::total                  898                       # number of writebacks
system.l2cache.demand_mshr_misses::.cpu.inst         1893                       # number of demand (read+write) MSHR misses
system.l2cache.demand_mshr_misses::.cpu.data        10295                       # number of demand (read+write) MSHR misses
system.l2cache.demand_mshr_misses::total        12188                       # number of demand (read+write) MSHR misses
system.l2cache.overall_mshr_misses::.cpu.inst         1893                       # number of overall MSHR misses
system.l2cache.overall_mshr_misses::.cpu.data        10295                       # number of overall MSHR misses
system.l2cache.overall_mshr_misses::total        12188                       # number of overall MSHR misses
system.l2cache.demand_mshr_miss_latency::.cpu.inst    150427000                       # number of demand (read+write) MSHR miss cycles
system.l2cache.demand_mshr_miss_latency::.cpu.data    845849000                       # number of demand (read+write) MSHR miss cycles
system.l2cache.demand_mshr_miss_latency::total    996276000                       # number of demand (read+write) MSHR miss cycles
system.l2cache.overall_mshr_miss_latency::.cpu.inst    150427000                       # number of overall MSHR miss cycles
system.l2cache.overall_mshr_miss_latency::.cpu.data    845849000                       # number of overall MSHR miss cycles
system.l2cache.overall_mshr_miss_latency::total    996276000                       # number of overall MSHR miss cycles
system.l2cache.demand_mshr_miss_rate::.cpu.inst     0.689366                       # mshr miss rate for demand accesses
system.l2cache.demand_mshr_miss_rate::.cpu.data     0.666084                       # mshr miss rate for demand accesses
system.l2cache.demand_mshr_miss_rate::total     0.669597                       # mshr miss rate for demand accesses
system.l2cache.overall_mshr_miss_rate::.cpu.inst     0.689366                       # mshr miss rate for overall accesses
system.l2cache.overall_mshr_miss_rate::.cpu.data     0.666084                       # mshr miss rate for overall accesses
system.l2cache.overall_mshr_miss_rate::total     0.669597                       # mshr miss rate for overall accesses
system.l2cache.demand_avg_mshr_miss_latency::.cpu.inst 79464.870576                       # average overall mshr miss latency
system.l2cache.demand_avg_mshr_miss_latency::.cpu.data 82161.146187                       # average overall mshr miss latency
system.l2cache.demand_avg_mshr_miss_latency::total 81742.369544                       # average overall mshr miss latency
system.l2cache.overall_avg_mshr_miss_latency::.cpu.inst 79464.870576                       # average overall mshr miss latency
system.l2cache.overall_avg_mshr_miss_latency::.cpu.data 82161.146187                       # average overall mshr miss latency
system.l2cache.overall_avg_mshr_miss_latency::total 81742.369544                       # average overall mshr miss latency
system.l2cache.replacements                      4019                       # number of replacements
system.l2cache.WritebackDirty_hits::.writebacks         3053                       # number of WritebackDirty hits
system.l2cache.WritebackDirty_hits::total         3053                       # number of WritebackDirty hits
system.l2cache.WritebackDirty_accesses::.writebacks         3053                       # number of WritebackDirty accesses(hits+misses)
system.l2cache.WritebackDirty_accesses::total         3053                       # number of WritebackDirty accesses(hits+misses)
system.l2cache.CleanEvict_mshr_misses::.writebacks          173                       # number of CleanEvict MSHR misses
system.l2cache.CleanEvict_mshr_misses::total          173                       # number of CleanEvict MSHR misses
system.l2cache.CleanEvict_mshr_miss_rate::.writebacks          inf                       # mshr miss rate for CleanEvict accesses
system.l2cache.CleanEvict_mshr_miss_rate::total          inf                       # mshr miss rate for CleanEvict accesses
system.l2cache.ReadExReq_hits::.cpu.data          668                       # number of ReadExReq hits
system.l2cache.ReadExReq_hits::total              668                       # number of ReadExReq hits
system.l2cache.ReadExReq_misses::.cpu.data         1704                       # number of ReadExReq misses
system.l2cache.ReadExReq_misses::total           1704                       # number of ReadExReq misses
system.l2cache.ReadExReq_miss_latency::.cpu.data    167019000                       # number of ReadExReq miss cycles
system.l2cache.ReadExReq_miss_latency::total    167019000                       # number of ReadExReq miss cycles
system.l2cache.ReadExReq_accesses::.cpu.data         2372                       # number of ReadExReq accesses(hits+misses)
system.l2cache.ReadExReq_accesses::total         2372                       # number of ReadExReq accesses(hits+misses)
system.l2cache.ReadExReq_miss_rate::.cpu.data     0.718381                       # miss rate for ReadExReq accesses
system.l2cache.ReadExReq_miss_rate::total     0.718381                       # miss rate for ReadExReq accesses
system.l2cache.ReadExReq_avg_miss_latency::.cpu.data 98015.845070                       # average ReadExReq miss latency
system.l2cache.ReadExReq_avg_miss_latency::total 98015.845070                       # average ReadExReq miss latency
system.l2cache.ReadExReq_mshr_misses::.cpu.data         1704                       # number of ReadExReq MSHR misses
system.l2cache.ReadExReq_mshr_misses::total         1704                       # number of ReadExReq MSHR misses
system.l2cache.ReadExReq_mshr_miss_latency::.cpu.data    132939000                       # number of ReadExReq MSHR miss cycles
system.l2cache.ReadExReq_mshr_miss_latency::total    132939000                       # number of ReadExReq MSHR miss cycles
system.l2cache.ReadExReq_mshr_miss_rate::.cpu.data     0.718381                       # mshr miss rate for ReadExReq accesses
system.l2cache.ReadExReq_mshr_miss_rate::total     0.718381                       # mshr miss rate for ReadExReq accesses
system.l2cache.ReadExReq_avg_mshr_miss_latency::.cpu.data 78015.845070                       # average ReadExReq mshr miss latency
system.l2cache.ReadExReq_avg_mshr_miss_latency::total 78015.845070                       # average ReadExReq mshr miss latency
system.l2cache.ReadSharedReq_hits::.cpu.inst          853                       # number of ReadSharedReq hits
system.l2cache.ReadSharedReq_hits::.cpu.data         4493                       # number of ReadSharedReq hits
system.l2cache.ReadSharedReq_hits::total         5346                       # number of ReadSharedReq hits
system.l2cache.ReadSharedReq_misses::.cpu.inst         1893                       # number of ReadSharedReq misses
system.l2cache.ReadSharedReq_misses::.cpu.data         8591                       # number of ReadSharedReq misses
system.l2cache.ReadSharedReq_misses::total        10484                       # number of ReadSharedReq misses
system.l2cache.ReadSharedReq_miss_latency::.cpu.inst    188287000                       # number of ReadSharedReq miss cycles
system.l2cache.ReadSharedReq_miss_latency::.cpu.data    884730000                       # number of ReadSharedReq miss cycles
system.l2cache.ReadSharedReq_miss_latency::total   1073017000                       # number of ReadSharedReq miss cycles
system.l2cache.ReadSharedReq_accesses::.cpu.inst         2746                       # number of ReadSharedReq accesses(hits+misses)
system.l2cache.ReadSharedReq_accesses::.cpu.data        13084                       # number of ReadSharedReq accesses(hits+misses)
system.l2cache.ReadSharedReq_accesses::total        15830                       # number of ReadSharedReq accesses(hits+misses)
system.l2cache.ReadSharedReq_miss_rate::.cpu.inst     0.689366                       # miss rate for ReadSharedReq accesses
system.l2cache.ReadSharedReq_miss_rate::.cpu.data     0.656603                       # miss rate for ReadSharedReq accesses
system.l2cache.ReadSharedReq_miss_rate::total     0.662287                       # miss rate for ReadSharedReq accesses
system.l2cache.ReadSharedReq_avg_miss_latency::.cpu.inst 99464.870576                       # average ReadSharedReq miss latency
system.l2cache.ReadSharedReq_avg_miss_latency::.cpu.data 102983.354673                       # average ReadSharedReq miss latency
system.l2cache.ReadSharedReq_avg_miss_latency::total 102348.054178                       # average ReadSharedReq miss latency
system.l2cache.ReadSharedReq_mshr_misses::.cpu.inst         1893                       # number of ReadSharedReq MSHR misses
system.l2cache.ReadSharedReq_mshr_misses::.cpu.data         8591                       # number of ReadSharedReq MSHR misses
system.l2cache.ReadSharedReq_mshr_misses::total        10484                       # number of ReadSharedReq MSHR misses
system.l2cache.ReadSharedReq_mshr_miss_latency::.cpu.inst    150427000                       # number of ReadSharedReq MSHR miss cycles
system.l2cache.ReadSharedReq_mshr_miss_latency::.cpu.data    712910000                       # number of ReadSharedReq MSHR miss cycles
system.l2cache.ReadSharedReq_mshr_miss_latency::total    863337000                       # number of ReadSharedReq MSHR miss cycles
system.l2cache.ReadSharedReq_mshr_miss_rate::.cpu.inst     0.689366                       # mshr miss rate for ReadSharedReq accesses
system.l2cache.ReadSharedReq_mshr_miss_rate::.cpu.data     0.656603                       # mshr miss rate for ReadSharedReq accesses
system.l2cache.ReadSharedReq_mshr_miss_rate::total     0.662287                       # mshr miss rate for ReadSharedReq accesses
system.l2cache.ReadSharedReq_avg_mshr_miss_latency::.cpu.inst 79464.870576                       # average ReadSharedReq mshr miss latency
system.l2cache.ReadSharedReq_avg_mshr_miss_latency::.cpu.data 82983.354673                       # average ReadSharedReq mshr miss latency
system.l2cache.ReadSharedReq_avg_mshr_miss_latency::total 82348.054178                       # average ReadSharedReq mshr miss latency
system.l2cache.power_state.pwrStateResidencyTicks::UNDEFINED   9181677000                       # Cumulative time (in ticks) in various power states
system.l2cache.tags.tagsinuse             6110.193388                       # Cycle average of tags in use
system.l2cache.tags.total_refs                  34951                       # Total number of references to valid blocks.
system.l2cache.tags.sampled_refs                12202                       # Sample count of references to valid blocks.
system.l2cache.tags.avg_refs                 2.864366                       # Average number of references to valid blocks.
system.l2cache.tags.warmup_cycle                86000                       # Cycle when the warmup percentage was hit.
system.l2cache.tags.occ_blocks::.writebacks     1.702885                       # Average occupied blocks per requestor
system.l2cache.tags.occ_blocks::.cpu.inst   603.475652                       # Average occupied blocks per requestor
system.l2cache.tags.occ_blocks::.cpu.data  5505.014851                       # Average occupied blocks per requestor
system.l2cache.tags.occ_percent::.writebacks     0.000208                       # Average percentage of cache occupancy
system.l2cache.tags.occ_percent::.cpu.inst     0.073666                       # Average percentage of cache occupancy
system.l2cache.tags.occ_percent::.cpu.data     0.671999                       # Average percentage of cache occupancy
system.l2cache.tags.occ_percent::total       0.745873                       # Average percentage of cache occupancy
system.l2cache.tags.occ_task_id_blocks::1024         8183                       # Occupied blocks per task id
system.l2cache.tags.age_task_id_blocks_1024::0           55                       # Occupied blocks per task id
system.l2cache.tags.age_task_id_blocks_1024::1          160                       # Occupied blocks per task id
system.l2cache.tags.age_task_id_blocks_1024::2         2110                       # Occupied blocks per task id
system.l2cache.tags.age_task_id_blocks_1024::3         5858                       # Occupied blocks per task id
system.l2cache.tags.occ_task_id_percent::1024     0.998901                       # Percentage of cache occupancy per task id
system.l2cache.tags.tag_accesses               293194                       # Number of tag accesses
system.l2cache.tags.data_accesses              293194                       # Number of data accesses
system.l2cache.tags.power_state.pwrStateResidencyTicks::UNDEFINED   9181677000                       # Cumulative time (in ticks) in various power states
system.mem_ctrl.avgPriority_.writebacks::samples       898.00                       # Average QoS priority value for accepted requests
system.mem_ctrl.avgPriority_.cpu.inst::samples      1893.00                       # Average QoS priority value for accepted requests
system.mem_ctrl.avgPriority_.cpu.data::samples     10286.00                       # Average QoS priority value for accepted requests
system.mem_ctrl.priorityMinLatency       0.000000018750                       # per QoS priority minimum request to response latency (s)
system.mem_ctrl.priorityMaxLatency       0.007374155500                       # per QoS priority maximum request to response latency (s)
system.mem_ctrl.numReadWriteTurnArounds            49                       # Number of turnarounds from READ to WRITE
system.mem_ctrl.numWriteReadTurnArounds            49                       # Number of turnarounds from WRITE to READ
system.mem_ctrl.numStayReadState                27603                       # Number of times bus staying in READ state
system.mem_ctrl.numStayWriteState                 821                       # Number of times bus staying in WRITE state
system.mem_ctrl.readReqs                        12188                       # Number of read requests accepted
system.mem_ctrl.writeReqs                         898                       # Number of write requests accepted
system.mem_ctrl.readBursts                      12188                       # Number of controller read bursts, including those serviced by the write queue
system.mem_ctrl.writeBursts                       898                       # Number of controller write bursts, including those merged in the write queue
system.mem_ctrl.servicedByWrQ                       9                       # Number of controller read bursts serviced by the write queue
system.mem_ctrl.mergedWrBursts                      0                       # Number of controller write bursts merged with an existing one
system.mem_ctrl.neitherReadNorWriteReqs             0                       # Number of requests that are neither read nor write
system.mem_ctrl.avgRdQLen                        1.00                       # Average read queue length when enqueuing
system.mem_ctrl.avgWrQLen                       13.93                       # Average write queue length when enqueuing
system.mem_ctrl.numRdRetry                          0                       # Number of times read queue was full causing retry
system.mem_ctrl.numWrRetry                          0                       # Number of times write queue was full causing retry
system.mem_ctrl.readPktSize::0                      0                       # Read request sizes (log2)
system.mem_ctrl.readPktSize::1                      0                       # Read request sizes (log2)
system.mem_ctrl.readPktSize::2                      0                       # Read request sizes (log2)
system.mem_ctrl.readPktSize::3                      0                       # Read request sizes (log2)
system.mem_ctrl.readPktSize::4                      0                       # Read request sizes (log2)
system.mem_ctrl.readPktSize::5                      0                       # Read request sizes (log2)
system.mem_ctrl.readPktSize::6                  12188                       # Read request sizes (log2)
system.mem_ctrl.writePktSize::0                     0                       # Write request sizes (log2)
system.mem_ctrl.writePktSize::1                     0                       # Write request sizes (log2)
system.mem_ctrl.writePktSize::2                     0                       # Write request sizes (log2)
system.mem_ctrl.writePktSize::3                     0                       # Write request sizes (log2)
system.mem_ctrl.writePktSize::4                     0                       # Write request sizes (log2)
system.mem_ctrl.writePktSize::5                     0                       # Write request sizes (log2)
system.mem_ctrl.writePktSize::6                   898                       # Write request sizes (log2)
system.mem_ctrl.rdQLenPdf::0                    12179                       # What read queue length does an incoming req see
system.mem_ctrl.rdQLenPdf::1                        0                       # What read queue length does an incoming req see
system.mem_ctrl.rdQLenPdf::2                        0                       # What read queue length does an incoming req see
system.mem_ctrl.rdQLenPdf::3                        0                       # What read queue length does an incoming req see
system.mem_ctrl.rdQLenPdf::4                        0                       # What read queue length does an incoming req see
system.mem_ctrl.rdQLenPdf::5                        0                       # What read queue length does an incoming req see
system.mem_ctrl.rdQLenPdf::6                        0                       # What read queue length does an incoming req see
system.mem_ctrl.rdQLenPdf::7                        0                       # What read queue length does an incoming req see
system.mem_ctrl.rdQLenPdf::8                        0                       # What read queue length does an incoming req see
system.mem_ctrl.rdQLenPdf::9                        0                       # What read queue length does an incoming req see
system.mem_ctrl.rdQLenPdf::10                       0                       # What read queue length does an incoming req see
system.mem_ctrl.rdQLenPdf::11                       0                       # What read queue length does an incoming req see
system.mem_ctrl.rdQLenPdf::12                       0                       # What read queue length does an incoming req see
system.mem_ctrl.rdQLenPdf::13                       0                       # What read queue length does an incoming req see
system.mem_ctrl.rdQLenPdf::14                       0                       # What read queue length does an incoming req see
system.mem_ctrl.rdQLenPdf::15                       0                       # What read queue length does an incoming req see
system.mem_ctrl.rdQLenPdf::16                       0                       # What read queue length does an incoming req see
system.mem_ctrl.rdQLenPdf::17                       0                       # What read queue length does an incoming req see
system.mem_ctrl.rdQLenPdf::18                       0                       # What read queue length does an incoming req see
system.mem_ctrl.rdQLenPdf::19                       0                       # What read queue length does an incoming req see
system.mem_ctrl.rdQLenPdf::20                       0                       # What read queue length does an incoming req see
system.mem_ctrl.rdQLenPdf::21                       0                       # What read queue length does an incoming req see
system.mem_ctrl.rdQLenPdf::22                       0                       # What read queue length does an incoming req see
system.mem_ctrl.rdQLenPdf::23                       0                       # What read queue length does an incoming req see
system.mem_ctrl.rdQLenPdf::24                       0                       # What read queue length does an incoming req see
system.mem_ctrl.rdQLenPdf::25                       0                       # What read queue length does an incoming req see
system.mem_ctrl.rdQLenPdf::26                       0                       # What read queue length does an incoming req see
system.mem_ctrl.rdQLenPdf::27                       0                       # What read queue length does an incoming req see
system.mem_ctrl.rdQLenPdf::28                       0                       # What read queue length does an incoming req see
system.mem_ctrl.rdQLenPdf::29                       0                       # What read queue length does an incoming req see
system.mem_ctrl.rdQLenPdf::30                       0                       # What read queue length does an incoming req see
system.mem_ctrl.rdQLenPdf::31                       0                       # What read queue length does an incoming req see
system.mem_ctrl.wrQLenPdf::0                        1                       # What write queue length does an incoming req see
system.mem_ctrl.wrQLenPdf::1                        1                       # What write queue length does an incoming req see
system.mem_ctrl.wrQLenPdf::2                        1                       # What write queue length does an incoming req see
system.mem_ctrl.wrQLenPdf::3                        1                       # What write queue length does an incoming req see
system.mem_ctrl.wrQLenPdf::4                        1                       # What write queue length does an incoming req see
system.mem_ctrl.wrQLenPdf::5                        1                       # What write queue length does an incoming req see
system.mem_ctrl.wrQLenPdf::6                        1                       # What write queue length does an incoming req see
system.mem_ctrl.wrQLenPdf::7                        1                       # What write queue length does an incoming req see
system.mem_ctrl.wrQLenPdf::8                        1                       # What write queue length does an incoming req see
system.mem_ctrl.wrQLenPdf::9                        1                       # What write queue length does an incoming req see
system.mem_ctrl.wrQLenPdf::10                       1                       # What write queue length does an incoming req see
system.mem_ctrl.wrQLenPdf::11                       1                       # What write queue length does an incoming req see
system.mem_ctrl.wrQLenPdf::12                       1                       # What write queue length does an incoming req see
system.mem_ctrl.wrQLenPdf::13                       1                       # What write queue length does an incoming req see
system.mem_ctrl.wrQLenPdf::14                       1                       # What write queue length does an incoming req see
system.mem_ctrl.wrQLenPdf::15                      43                       # What write queue length does an incoming req see
system.mem_ctrl.wrQLenPdf::16                      45                       # What write queue length does an incoming req see
system.mem_ctrl.wrQLenPdf::17                      50                       # What write queue length does an incoming req see
system.mem_ctrl.wrQLenPdf::18                      50                       # What write queue length does an incoming req see
system.mem_ctrl.wrQLenPdf::19                      50                       # What write queue length does an incoming req see
system.mem_ctrl.wrQLenPdf::20                      50                       # What write queue length does an incoming req see
system.mem_ctrl.wrQLenPdf::21                      50                       # What write queue length does an incoming req see
system.mem_ctrl.wrQLenPdf::22                      50                       # What write queue length does an incoming req see
system.mem_ctrl.wrQLenPdf::23                      50                       # What write queue length does an incoming req see
system.mem_ctrl.wrQLenPdf::24                      50                       # What write queue length does an incoming req see
system.mem_ctrl.wrQLenPdf::25                      50                       # What write queue length does an incoming req see
system.mem_ctrl.wrQLenPdf::26                      50                       # What write queue length does an incoming req see
system.mem_ctrl.wrQLenPdf::27                      50                       # What write queue length does an incoming req see
system.mem_ctrl.wrQLenPdf::28                      49                       # What write queue length does an incoming req see
system.mem_ctrl.wrQLenPdf::29                      49                       # What write queue length does an incoming req see
system.mem_ctrl.wrQLenPdf::30                      49                       # What write queue length does an incoming req see
system.mem_ctrl.wrQLenPdf::31                      49                       # What write queue length does an incoming req see
system.mem_ctrl.wrQLenPdf::32                      49                       # What write queue length does an incoming req see
system.mem_ctrl.wrQLenPdf::33                       0                       # What write queue length does an incoming req see
system.mem_ctrl.wrQLenPdf::34                       0                       # What write queue length does an incoming req see
system.mem_ctrl.wrQLenPdf::35                       0                       # What write queue length does an incoming req see
system.mem_ctrl.wrQLenPdf::36                       0                       # What write queue length does an incoming req see
system.mem_ctrl.wrQLenPdf::37                       0                       # What write queue length does an incoming req see
system.mem_ctrl.wrQLenPdf::38                       0                       # What write queue length does an incoming req see
system.mem_ctrl.wrQLenPdf::39                       0                       # What write queue length does an incoming req see
system.mem_ctrl.wrQLenPdf::40                       0                       # What write queue length does an incoming req see
system.mem_ctrl.wrQLenPdf::41                       0                       # What write queue length does an incoming req see
system.mem_ctrl.wrQLenPdf::42                       0                       # What write queue length does an incoming req see
system.mem_ctrl.wrQLenPdf::43                       0                       # What write queue length does an incoming req see
system.mem_ctrl.wrQLenPdf::44                       0                       # What write queue length does an incoming req see
system.mem_ctrl.wrQLenPdf::45                       0                       # What write queue length does an incoming req see
system.mem_ctrl.wrQLenPdf::46                       0                       # What write queue length does an incoming req see
system.mem_ctrl.wrQLenPdf::47                       0                       # What write queue length does an incoming req see
system.mem_ctrl.wrQLenPdf::48                       0                       # What write queue length does an incoming req see
system.mem_ctrl.wrQLenPdf::49                       0                       # What write queue length does an incoming req see
system.mem_ctrl.wrQLenPdf::50                       0                       # What write queue length does an incoming req see
system.mem_ctrl.wrQLenPdf::51                       0                       # What write queue length does an incoming req see
system.mem_ctrl.wrQLenPdf::52                       0                       # What write queue length does an incoming req see
system.mem_ctrl.wrQLenPdf::53                       0                       # What write queue length does an incoming req see
system.mem_ctrl.wrQLenPdf::54                       0                       # What write queue length does an incoming req see
system.mem_ctrl.wrQLenPdf::55                       0                       # What write queue length does an incoming req see
system.mem_ctrl.wrQLenPdf::56                       0                       # What write queue length does an incoming req see
system.mem_ctrl.wrQLenPdf::57                       0                       # What write queue length does an incoming req see
system.mem_ctrl.wrQLenPdf::58                       0                       # What write queue length does an incoming req see
system.mem_ctrl.wrQLenPdf::59                       0                       # What write queue length does an incoming req see
system.mem_ctrl.wrQLenPdf::60                       0                       # What write queue length does an incoming req see
system.mem_ctrl.wrQLenPdf::61                       0                       # What write queue length does an incoming req see
system.mem_ctrl.wrQLenPdf::62                       0                       # What write queue length does an incoming req see
system.mem_ctrl.wrQLenPdf::63                       0                       # What write queue length does an incoming req see
system.mem_ctrl.rdPerTurnAround::samples           49                       # Reads before turning the bus around for writes
system.mem_ctrl.rdPerTurnAround::mean      247.530612                       # Reads before turning the bus around for writes
system.mem_ctrl.rdPerTurnAround::gmean      95.464503                       # Reads before turning the bus around for writes
system.mem_ctrl.rdPerTurnAround::stdev    1008.091764                       # Reads before turning the bus around for writes
system.mem_ctrl.rdPerTurnAround::0-255             45     91.84%     91.84% # Reads before turning the bus around for writes
system.mem_ctrl.rdPerTurnAround::256-511            3      6.12%     97.96% # Reads before turning the bus around for writes
system.mem_ctrl.rdPerTurnAround::6912-7167            1      2.04%    100.00% # Reads before turning the bus around for writes
system.mem_ctrl.rdPerTurnAround::total             49                       # Reads before turning the bus around for writes
system.mem_ctrl.wrPerTurnAround::samples           49                       # Writes before turning the bus around for reads
system.mem_ctrl.wrPerTurnAround::mean       17.755102                       # Writes before turning the bus around for reads
system.mem_ctrl.wrPerTurnAround::gmean      17.743515                       # Writes before turning the bus around for reads
system.mem_ctrl.wrPerTurnAround::stdev       0.630166                       # Writes before turning the bus around for reads
system.mem_ctrl.wrPerTurnAround::16                 5     10.20%     10.20% # Writes before turning the bus around for reads
system.mem_ctrl.wrPerTurnAround::17                 2      4.08%     14.29% # Writes before turning the bus around for reads
system.mem_ctrl.wrPerTurnAround::18                42     85.71%    100.00% # Writes before turning the bus around for reads
system.mem_ctrl.wrPerTurnAround::total             49                       # Writes before turning the bus around for reads
system.mem_ctrl.bytesReadWrQ                      576                       # Total number of bytes read from write queue
system.mem_ctrl.bytesReadSys                   780032                       # Total read bytes from the system interface side
system.mem_ctrl.bytesWrittenSys                 57472                       # Total written bytes from the system interface side
system.mem_ctrl.avgRdBWSys                      84.96                       # Average system read bandwidth in MiByte/s
system.mem_ctrl.avgWrBWSys                       6.26                       # Average system write bandwidth in MiByte/s
system.mem_ctrl.totGap                     9181578000                       # Total gap between requests
system.mem_ctrl.avgGap                      701633.65                       # Average gap between requests
system.mem_ctrl.requestorReadBytes::.cpu.inst       121152                       # Per-requestor bytes read from memory
system.mem_ctrl.requestorReadBytes::.cpu.data       658304                       # Per-requestor bytes read from memory
system.mem_ctrl.requestorWriteBytes::.writebacks        55680                       # Per-requestor bytes write to memory
system.mem_ctrl.requestorReadRate::.cpu.inst 13194975.166301321238                       # Per-requestor bytes read from memory rate (Bytes/sec)
system.mem_ctrl.requestorReadRate::.cpu.data 71697577.686516314745                       # Per-requestor bytes read from memory rate (Bytes/sec)
system.mem_ctrl.requestorWriteRate::.writebacks 6064251.661216137931                       # Per-requestor bytes write to memory rate (Bytes/sec)
system.mem_ctrl.requestorReadAccesses::.cpu.inst         1893                       # Per-requestor read serviced memory accesses
system.mem_ctrl.requestorReadAccesses::.cpu.data        10295                       # Per-requestor read serviced memory accesses
system.mem_ctrl.requestorWriteAccesses::.writebacks          898                       # Per-requestor write serviced memory accesses
system.mem_ctrl.requestorReadTotalLat::.cpu.inst     53225250                       # Per-requestor read total memory access latency
system.mem_ctrl.requestorReadTotalLat::.cpu.data    316891000                       # Per-requestor read total memory access latency
system.mem_ctrl.requestorWriteTotalLat::.writebacks 123386038500                       # Per-requestor write total memory access latency
system.mem_ctrl.requestorReadAvgLat::.cpu.inst     28116.88                       # Per-requestor read average memory access latency
system.mem_ctrl.requestorReadAvgLat::.cpu.data     30781.06                       # Per-requestor read average memory access latency
system.mem_ctrl.requestorWriteAvgLat::.writebacks 137400933.74                       # Per-requestor write average memory access latency
system.mem_ctrl.dram.bytes_read::.cpu.inst       121152                       # Number of bytes read from this memory
system.mem_ctrl.dram.bytes_read::.cpu.data       658880                       # Number of bytes read from this memory
system.mem_ctrl.dram.bytes_read::total         780032                       # Number of bytes read from this memory
system.mem_ctrl.dram.bytes_inst_read::.cpu.inst       121152                       # Number of instructions bytes read from this memory
system.mem_ctrl.dram.bytes_inst_read::total       121152                       # Number of instructions bytes read from this memory
system.mem_ctrl.dram.bytes_written::.writebacks        57472                       # Number of bytes written to this memory
system.mem_ctrl.dram.bytes_written::total        57472                       # Number of bytes written to this memory
system.mem_ctrl.dram.num_reads::.cpu.inst         1893                       # Number of read requests responded to by this memory
system.mem_ctrl.dram.num_reads::.cpu.data        10295                       # Number of read requests responded to by this memory
system.mem_ctrl.dram.num_reads::total           12188                       # Number of read requests responded to by this memory
system.mem_ctrl.dram.num_writes::.writebacks          898                       # Number of write requests responded to by this memory
system.mem_ctrl.dram.num_writes::total            898                       # Number of write requests responded to by this memory
system.mem_ctrl.dram.bw_read::.cpu.inst      13194975                       # Total read bandwidth from this memory (bytes/s)
system.mem_ctrl.dram.bw_read::.cpu.data      71760311                       # Total read bandwidth from this memory (bytes/s)
system.mem_ctrl.dram.bw_read::total          84955286                       # Total read bandwidth from this memory (bytes/s)
system.mem_ctrl.dram.bw_inst_read::.cpu.inst     13194975                       # Instruction read bandwidth from this memory (bytes/s)
system.mem_ctrl.dram.bw_inst_read::total     13194975                       # Instruction read bandwidth from this memory (bytes/s)
system.mem_ctrl.dram.bw_write::.writebacks      6259423                       # Write bandwidth from this memory (bytes/s)
system.mem_ctrl.dram.bw_write::total          6259423                       # Write bandwidth from this memory (bytes/s)
system.mem_ctrl.dram.bw_total::.writebacks      6259423                       # Total bandwidth to/from this memory (bytes/s)
system.mem_ctrl.dram.bw_total::.cpu.inst     13194975                       # Total bandwidth to/from this memory (bytes/s)
system.mem_ctrl.dram.bw_total::.cpu.data     71760311                       # Total bandwidth to/from this memory (bytes/s)
system.mem_ctrl.dram.bw_total::total         91214709                       # Total bandwidth to/from this memory (bytes/s)
system.mem_ctrl.dram.readBursts                 12179                       # Number of DRAM read bursts
system.mem_ctrl.dram.writeBursts                  870                       # Number of DRAM write bursts
system.mem_ctrl.dram.perBankRdBursts::0           950                       # Per bank write bursts
system.mem_ctrl.dram.perBankRdBursts::1           593                       # Per bank write bursts
system.mem_ctrl.dram.perBankRdBursts::2           709                       # Per bank write bursts
system.mem_ctrl.dram.perBankRdBursts::3           700                       # Per bank write bursts
system.mem_ctrl.dram.perBankRdBursts::4           843                       # Per bank write bursts
system.mem_ctrl.dram.perBankRdBursts::5           928                       # Per bank write bursts
system.mem_ctrl.dram.perBankRdBursts::6           868                       # Per bank write bursts
system.mem_ctrl.dram.perBankRdBursts::7           885                       # Per bank write bursts
system.mem_ctrl.dram.perBankRdBursts::8           656                       # Per bank write bursts
system.mem_ctrl.dram.perBankRdBursts::9           835                       # Per bank write bursts
system.mem_ctrl.dram.perBankRdBursts::10          753                       # Per bank write bursts
system.mem_ctrl.dram.perBankRdBursts::11          808                       # Per bank write bursts
system.mem_ctrl.dram.perBankRdBursts::12          658                       # Per bank write bursts
system.mem_ctrl.dram.perBankRdBursts::13          638                       # Per bank write bursts
system.mem_ctrl.dram.perBankRdBursts::14          642                       # Per bank write bursts
system.mem_ctrl.dram.perBankRdBursts::15          713                       # Per bank write bursts
system.mem_ctrl.dram.perBankWrBursts::0           134                       # Per bank write bursts
system.mem_ctrl.dram.perBankWrBursts::1            28                       # Per bank write bursts
system.mem_ctrl.dram.perBankWrBursts::2            33                       # Per bank write bursts
system.mem_ctrl.dram.perBankWrBursts::3            68                       # Per bank write bursts
system.mem_ctrl.dram.perBankWrBursts::4            52                       # Per bank write bursts
system.mem_ctrl.dram.perBankWrBursts::5            57                       # Per bank write bursts
system.mem_ctrl.dram.perBankWrBursts::6            23                       # Per bank write bursts
system.mem_ctrl.dram.perBankWrBursts::7            57                       # Per bank write bursts
system.mem_ctrl.dram.perBankWrBursts::8            51                       # Per bank write bursts
system.mem_ctrl.dram.perBankWrBursts::9            84                       # Per bank write bursts
system.mem_ctrl.dram.perBankWrBursts::10          102                       # Per bank write bursts
system.mem_ctrl.dram.perBankWrBursts::11           82                       # Per bank write bursts
system.mem_ctrl.dram.perBankWrBursts::12           68                       # Per bank write bursts
system.mem_ctrl.dram.perBankWrBursts::13            0                       # Per bank write bursts
system.mem_ctrl.dram.perBankWrBursts::14            0                       # Per bank write bursts
system.mem_ctrl.dram.perBankWrBursts::15           31                       # Per bank write bursts
system.mem_ctrl.dram.totQLat                141760000                       # Total ticks spent queuing
system.mem_ctrl.dram.totBusLat               60895000                       # Total ticks spent in databus transfers
system.mem_ctrl.dram.totMemAccLat           370116250                       # Total ticks spent from burst creation until serviced by the DRAM
system.mem_ctrl.dram.avgQLat                 11639.71                       # Average queueing delay per DRAM burst
system.mem_ctrl.dram.avgBusLat                5000.00                       # Average bus latency per DRAM burst
system.mem_ctrl.dram.avgMemAccLat            30389.71                       # Average memory access latency per DRAM burst
system.mem_ctrl.dram.readRowHits                 6419                       # Number of row buffer hits during reads
system.mem_ctrl.dram.writeRowHits                 644                       # Number of row buffer hits during writes
system.mem_ctrl.dram.readRowHitRate             52.71                       # Row buffer hit rate for reads
system.mem_ctrl.dram.writeRowHitRate            74.02                       # Row buffer hit rate for writes
system.mem_ctrl.dram.bytesPerActivate::samples         5982                       # Bytes accessed per row activation
system.mem_ctrl.dram.bytesPerActivate::mean   139.501170                       # Bytes accessed per row activation
system.mem_ctrl.dram.bytesPerActivate::gmean    97.790290                       # Bytes accessed per row activation
system.mem_ctrl.dram.bytesPerActivate::stdev   180.192358                       # Bytes accessed per row activation
system.mem_ctrl.dram.bytesPerActivate::0-127         3883     64.91%     64.91% # Bytes accessed per row activation
system.mem_ctrl.dram.bytesPerActivate::128-255         1374     22.97%     87.88% # Bytes accessed per row activation
system.mem_ctrl.dram.bytesPerActivate::256-383          275      4.60%     92.48% # Bytes accessed per row activation
system.mem_ctrl.dram.bytesPerActivate::384-511          135      2.26%     94.73% # Bytes accessed per row activation
system.mem_ctrl.dram.bytesPerActivate::512-639           79      1.32%     96.05% # Bytes accessed per row activation
system.mem_ctrl.dram.bytesPerActivate::640-767           49      0.82%     96.87% # Bytes accessed per row activation
system.mem_ctrl.dram.bytesPerActivate::768-895           33      0.55%     97.43% # Bytes accessed per row activation
system.mem_ctrl.dram.bytesPerActivate::896-1023           35      0.59%     98.01% # Bytes accessed per row activation
system.mem_ctrl.dram.bytesPerActivate::1024-1151          119      1.99%    100.00% # Bytes accessed per row activation
system.mem_ctrl.dram.bytesPerActivate::total         5982                       # Bytes accessed per row activation
system.mem_ctrl.dram.bytesRead                 779456                       # Total number of bytes read from DRAM
system.mem_ctrl.dram.bytesWritten               55680                       # Total number of bytes written to DRAM
system.mem_ctrl.dram.avgRdBW                84.892553                       # Average DRAM read bandwidth in MiBytes/s
system.mem_ctrl.dram.avgWrBW                 6.064252                       # Average DRAM write bandwidth in MiBytes/s
system.mem_ctrl.dram.peakBW                  12800.00                       # Theoretical peak bandwidth in MiByte/s
system.mem_ctrl.dram.busUtil                     0.71                       # Data bus utilization in percentage
system.mem_ctrl.dram.busUtilRead                 0.66                       # Data bus utilization in percentage for reads
system.mem_ctrl.dram.busUtilWrite                0.05                       # Data bus utilization in percentage for writes
system.mem_ctrl.dram.pageHitRate                54.13                       # Row buffer hit rate, read and write combined
system.mem_ctrl.dram.power_state.pwrStateResidencyTicks::UNDEFINED   9181677000                       # Cumulative time (in ticks) in various power states
system.mem_ctrl.dram.rank0.actEnergy         22219680                       # Energy for activate commands per rank (pJ)
system.mem_ctrl.dram.rank0.preEnergy         11798655                       # Energy for precharge commands per rank (pJ)
system.mem_ctrl.dram.rank0.readEnergy        46238640                       # Energy for read commands per rank (pJ)
system.mem_ctrl.dram.rank0.writeEnergy        2359440                       # Energy for write commands per rank (pJ)
system.mem_ctrl.dram.rank0.refreshEnergy 724660560.000000                       # Energy for refresh commands per rank (pJ)
system.mem_ctrl.dram.rank0.actBackEnergy   2886925170                       # Energy for active background per rank (pJ)
system.mem_ctrl.dram.rank0.preBackEnergy   1094669280                       # Energy for precharge background per rank (pJ)
system.mem_ctrl.dram.rank0.actPowerDownEnergy            0                       # Energy for active power-down per rank (pJ)
system.mem_ctrl.dram.rank0.prePowerDownEnergy            0                       # Energy for precharge power-down per rank (pJ)
system.mem_ctrl.dram.rank0.selfRefreshEnergy            0                       # Energy for self refresh per rank (pJ)
system.mem_ctrl.dram.rank0.totalEnergy     4788871425                       # Total energy per rank (pJ)
system.mem_ctrl.dram.rank0.averagePower    521.568274                       # Core power per rank (mW)
system.mem_ctrl.dram.rank0.totalIdleTime            0                       # Total Idle time Per DRAM Rank
system.mem_ctrl.dram.rank0.pwrStateTime::IDLE   2817575500                       # Time in different power states
system.mem_ctrl.dram.rank0.pwrStateTime::REF    306540000                       # Time in different power states
system.mem_ctrl.dram.rank0.pwrStateTime::SREF            0                       # Time in different power states
system.mem_ctrl.dram.rank0.pwrStateTime::PRE_PDN            0                       # Time in different power states
system.mem_ctrl.dram.rank0.pwrStateTime::ACT   6057561500                       # Time in different power states
system.mem_ctrl.dram.rank0.pwrStateTime::ACT_PDN            0                       # Time in different power states
system.mem_ctrl.dram.rank1.actEnergy         20520360                       # Energy for activate commands per rank (pJ)
system.mem_ctrl.dram.rank1.preEnergy         10903035                       # Energy for precharge commands per rank (pJ)
system.mem_ctrl.dram.rank1.readEnergy        40719420                       # Energy for read commands per rank (pJ)
system.mem_ctrl.dram.rank1.writeEnergy        2181960                       # Energy for write commands per rank (pJ)
system.mem_ctrl.dram.rank1.refreshEnergy 724660560.000000                       # Energy for refresh commands per rank (pJ)
system.mem_ctrl.dram.rank1.actBackEnergy   2807915190                       # Energy for active background per rank (pJ)
system.mem_ctrl.dram.rank1.preBackEnergy   1161204000                       # Energy for precharge background per rank (pJ)
system.mem_ctrl.dram.rank1.actPowerDownEnergy            0                       # Energy for active power-down per rank (pJ)
system.mem_ctrl.dram.rank1.prePowerDownEnergy            0                       # Energy for precharge power-down per rank (pJ)
system.mem_ctrl.dram.rank1.selfRefreshEnergy            0                       # Energy for self refresh per rank (pJ)
system.mem_ctrl.dram.rank1.totalEnergy     4768104525                       # Total energy per rank (pJ)
system.mem_ctrl.dram.rank1.averagePower    519.306498                       # Core power per rank (mW)
system.mem_ctrl.dram.rank1.totalIdleTime            0                       # Total Idle time Per DRAM Rank
system.mem_ctrl.dram.rank1.pwrStateTime::IDLE   2992033000                       # Time in different power states
system.mem_ctrl.dram.rank1.pwrStateTime::REF    306540000                       # Time in different power states
system.mem_ctrl.dram.rank1.pwrStateTime::SREF            0                       # Time in different power states
system.mem_ctrl.dram.rank1.pwrStateTime::PRE_PDN            0                       # Time in different power states
system.mem_ctrl.dram.rank1.pwrStateTime::ACT   5883104000                       # Time in different power states
system.mem_ctrl.dram.rank1.pwrStateTime::ACT_PDN            0                       # Time in different power states
system.mem_ctrl.power_state.pwrStateResidencyTicks::UNDEFINED   9181677000                       # Cumulative time (in ticks) in various power states
system.membus.trans_dist::ReadResp              10484                       # Transaction distribution
system.membus.trans_dist::WritebackDirty          898                       # Transaction distribution
system.membus.trans_dist::CleanEvict             3100                       # Transaction distribution
system.membus.trans_dist::ReadExReq              1704                       # Transaction distribution
system.membus.trans_dist::ReadExResp             1704                       # Transaction distribution
system.membus.trans_dist::ReadSharedReq         10484                       # Transaction distribution
system.membus.pkt_count_system.l2cache.mem_side_port::system.mem_ctrl.port        28374                       # Packet count per connected requestor and responder (bytes)
system.membus.pkt_count_system.l2cache.mem_side_port::total        28374                       # Packet count per connected requestor and responder (bytes)
system.membus.pkt_count::total                  28374                       # Packet count per connected requestor and responder (bytes)
system.membus.pkt_size_system.l2cache.mem_side_port::system.mem_ctrl.port       837504                       # Cumulative packet size per connected requestor and responder (bytes)
system.membus.pkt_size_system.l2cache.mem_side_port::total       837504                       # Cumulative packet size per connected requestor and responder (bytes)
system.membus.pkt_size::total                  837504                       # Cumulative packet size per connected requestor and responder (bytes)
system.membus.snoops                                0                       # Total snoops (count)
system.membus.snoopTraffic                          0                       # Total snoop traffic (bytes)
system.membus.snoop_fanout::samples             12188                       # Request fanout histogram
system.membus.snoop_fanout::mean                    0                       # Request fanout histogram
system.membus.snoop_fanout::stdev                   0                       # Request fanout histogram
system.membus.snoop_fanout::underflows              0      0.00%      0.00% # Request fanout histogram
system.membus.snoop_fanout::0                   12188    100.00%    100.00% # Request fanout histogram
system.membus.snoop_fanout::1                       0      0.00%    100.00% # Request fanout histogram
system.membus.snoop_fanout::overflows               0      0.00%    100.00% # Request fanout histogram
system.membus.snoop_fanout::min_value               0                       # Request fanout histogram
system.membus.snoop_fanout::max_value               0                       # Request fanout histogram
system.membus.snoop_fanout::total               12188                       # Request fanout histogram
system.membus.power_state.pwrStateResidencyTicks::UNDEFINED   9181677000                       # Cumulative time (in ticks) in various power states
system.membus.reqLayer2.occupancy            19778000                       # Layer occupancy (ticks)
system.membus.reqLayer2.utilization               0.2                       # Layer utilization (%)
system.membus.respLayer0.occupancy           65601750                       # Layer occupancy (ticks)
system.membus.respLayer0.utilization              0.7                       # Layer utilization (%)

---------- End Simulation Statistics   ----------
