
---------- Begin Simulation Statistics ----------
final_tick                                 8161783000                       # Number of ticks from beginning of simulation (restored from checkpoints and never reset)
host_inst_rate                                  21699                       # Simulator instruction rate (inst/s)
host_mem_usage                                 641248                       # Number of bytes of host memory used
host_op_rate                                    33642                       # Simulator op (including micro ops) rate (op/s)
host_seconds                                    33.64                       # Real time elapsed on the host
host_tick_rate                              242642937                       # Simulator tick rate (ticks/s)
sim_freq                                 1000000000000                       # Frequency of simulated ticks
sim_insts                                      729871                       # Number of instructions simulated
sim_ops                                       1131598                       # Number of ops (including micro ops) simulated
sim_seconds                                  0.008162                       # Number of seconds simulated
sim_ticks                                  8161783000                       # Number of ticks simulated
system.cpu.cc_regfile_reads                    667532                       # number of cc regfile reads
system.cpu.cc_regfile_writes                  1056506                       # number of cc regfile writes
system.cpu.committedInsts                      729871                       # Number of Instructions Simulated
system.cpu.committedOps                       1131598                       # Number of Ops (including micro ops) Simulated
system.cpu.cpi                              11.182502                       # CPI: Cycles Per Instruction
system.cpu.cpi_total                        11.182502                       # CPI: Total CPI of All Threads
system.cpu.fp_regfile_reads                      1737                       # number of floating regfile reads
system.cpu.fp_regfile_writes                      805                       # number of floating regfile writes
system.cpu.idleCycles                           22163                       # Total number of cycles that the CPU has spent unscheduled due to idling
system.cpu.iew.branchMispredicts                  676                       # Number of branch mispredicts detected at execute
system.cpu.iew.exec_branches                    68118                       # Number of branches executed
system.cpu.iew.exec_nop                             0                       # number of nop insts executed
system.cpu.iew.exec_rate                     0.139842                       # Inst execution rate
system.cpu.iew.exec_refs                        70729                       # number of memory reference insts executed
system.cpu.iew.exec_stores                       2148                       # Number of stores executed
system.cpu.iew.exec_swp                             0                       # number of swp insts executed
system.cpu.iew.iewBlockCycles                 6879827                       # Number of cycles IEW is blocking
system.cpu.iew.iewDispLoadInsts                 68959                       # Number of dispatched load instructions
system.cpu.iew.iewDispNonSpecInsts                  0                       # Number of dispatched non-speculative instructions
system.cpu.iew.iewDispSquashedInsts                80                       # Number of squashed instructions skipped by dispatch
system.cpu.iew.iewDispStoreInsts                 2601                       # Number of dispatched store instructions
system.cpu.iew.iewDispatchedInsts             1145639                       # Number of instructions dispatched to IQ
system.cpu.iew.iewExecLoadInsts                 68581                       # Number of load instructions executed
system.cpu.iew.iewExecSquashedInsts               833                       # Number of squashed instructions skipped in execute
system.cpu.iew.iewExecutedInsts               1141361                       # Number of executed instructions
system.cpu.iew.iewIQFullEvents                     21                       # Number of times the IQ has become full, causing a stall
system.cpu.iew.iewIdleCycles                        0                       # Number of cycles IEW is idle
system.cpu.iew.iewLSQFullEvents                   676                       # Number of times the LSQ has become full, causing a stall
system.cpu.iew.iewSquashCycles                    593                       # Number of cycles IEW is squashing
system.cpu.iew.iewUnblockCycles                 63085                       # Number of cycles IEW is unblocking
system.cpu.iew.memOrderViolationEvents             16                       # Number of memory order violations
system.cpu.iew.predictedNotTakenIncorrect          621                       # Number of branches that were predicted not taken incorrectly
system.cpu.iew.predictedTakenIncorrect             55                       # Number of branches that were predicted taken incorrectly
system.cpu.iew.wb_consumers                   1907097                       # num instructions consuming a value
system.cpu.iew.wb_count                       1140520                       # cumulative count of insts written-back
system.cpu.iew.wb_fanout                     0.479485                       # average fanout of values written-back
system.cpu.iew.wb_producers                    914424                       # num instructions producing a value
system.cpu.iew.wb_rate                       0.139739                       # insts written-back per cycle
system.cpu.iew.wb_sent                        1140835                       # cumulative count of insts sent to commit
system.cpu.int_regfile_reads                  1740071                       # number of integer regfile reads
system.cpu.int_regfile_writes                 1069149                       # number of integer regfile writes
system.cpu.ipc                               0.089425                       # IPC: Instructions Per Cycle
system.cpu.ipc_total                         0.089425                       # IPC: Total IPC of All Threads
system.cpu.iq.FU_type_0::No_OpClass               672      0.06%      0.06% # Type of FU issued
system.cpu.iq.FU_type_0::IntAlu               1069889     93.67%     93.73% # Type of FU issued
system.cpu.iq.FU_type_0::IntMult                    6      0.00%     93.73% # Type of FU issued
system.cpu.iq.FU_type_0::IntDiv                    30      0.00%     93.73% # Type of FU issued
system.cpu.iq.FU_type_0::FloatAdd                 136      0.01%     93.74% # Type of FU issued
system.cpu.iq.FU_type_0::FloatCmp                   0      0.00%     93.74% # Type of FU issued
system.cpu.iq.FU_type_0::FloatCvt                   0      0.00%     93.74% # Type of FU issued
system.cpu.iq.FU_type_0::FloatMult                  0      0.00%     93.74% # Type of FU issued
system.cpu.iq.FU_type_0::FloatMultAcc               0      0.00%     93.74% # Type of FU issued
system.cpu.iq.FU_type_0::FloatDiv                   0      0.00%     93.74% # Type of FU issued
system.cpu.iq.FU_type_0::FloatMisc                  0      0.00%     93.74% # Type of FU issued
system.cpu.iq.FU_type_0::FloatSqrt                  0      0.00%     93.74% # Type of FU issued
system.cpu.iq.FU_type_0::SimdAdd                    0      0.00%     93.74% # Type of FU issued
system.cpu.iq.FU_type_0::SimdAddAcc                 0      0.00%     93.74% # Type of FU issued
system.cpu.iq.FU_type_0::SimdAlu                  164      0.01%     93.76% # Type of FU issued
system.cpu.iq.FU_type_0::SimdCmp                   12      0.00%     93.76% # Type of FU issued
system.cpu.iq.FU_type_0::SimdCvt                   78      0.01%     93.77% # Type of FU issued
system.cpu.iq.FU_type_0::SimdMisc                 248      0.02%     93.79% # Type of FU issued
system.cpu.iq.FU_type_0::SimdMult                   0      0.00%     93.79% # Type of FU issued
system.cpu.iq.FU_type_0::SimdMultAcc                0      0.00%     93.79% # Type of FU issued
system.cpu.iq.FU_type_0::SimdShift                  0      0.00%     93.79% # Type of FU issued
system.cpu.iq.FU_type_0::SimdShiftAcc               0      0.00%     93.79% # Type of FU issued
system.cpu.iq.FU_type_0::SimdDiv                    0      0.00%     93.79% # Type of FU issued
system.cpu.iq.FU_type_0::SimdSqrt                   0      0.00%     93.79% # Type of FU issued
system.cpu.iq.FU_type_0::SimdFloatAdd               0      0.00%     93.79% # Type of FU issued
system.cpu.iq.FU_type_0::SimdFloatAlu               0      0.00%     93.79% # Type of FU issued
system.cpu.iq.FU_type_0::SimdFloatCmp               0      0.00%     93.79% # Type of FU issued
system.cpu.iq.FU_type_0::SimdFloatCvt               0      0.00%     93.79% # Type of FU issued
system.cpu.iq.FU_type_0::SimdFloatDiv               0      0.00%     93.79% # Type of FU issued
system.cpu.iq.FU_type_0::SimdFloatMisc              0      0.00%     93.79% # Type of FU issued
system.cpu.iq.FU_type_0::SimdFloatMult              0      0.00%     93.79% # Type of FU issued
system.cpu.iq.FU_type_0::SimdFloatMultAcc            0      0.00%     93.79% # Type of FU issued
system.cpu.iq.FU_type_0::SimdFloatSqrt              0      0.00%     93.79% # Type of FU issued
system.cpu.iq.FU_type_0::SimdReduceAdd              0      0.00%     93.79% # Type of FU issued
system.cpu.iq.FU_type_0::SimdReduceAlu              0      0.00%     93.79% # Type of FU issued
system.cpu.iq.FU_type_0::SimdReduceCmp              0      0.00%     93.79% # Type of FU issued
system.cpu.iq.FU_type_0::SimdFloatReduceAdd            0      0.00%     93.79% # Type of FU issued
system.cpu.iq.FU_type_0::SimdFloatReduceCmp            0      0.00%     93.79% # Type of FU issued
system.cpu.iq.FU_type_0::SimdAes                    0      0.00%     93.79% # Type of FU issued
system.cpu.iq.FU_type_0::SimdAesMix                 0      0.00%     93.79% # Type of FU issued
system.cpu.iq.FU_type_0::SimdSha1Hash               0      0.00%     93.79% # Type of FU issued
system.cpu.iq.FU_type_0::SimdSha1Hash2              0      0.00%     93.79% # Type of FU issued
system.cpu.iq.FU_type_0::SimdSha256Hash             0      0.00%     93.79% # Type of FU issued
system.cpu.iq.FU_type_0::SimdSha256Hash2            0      0.00%     93.79% # Type of FU issued
system.cpu.iq.FU_type_0::SimdShaSigma2              0      0.00%     93.79% # Type of FU issued
system.cpu.iq.FU_type_0::SimdShaSigma3              0      0.00%     93.79% # Type of FU issued
system.cpu.iq.FU_type_0::SimdPredAlu                0      0.00%     93.79% # Type of FU issued
system.cpu.iq.FU_type_0::MemRead                68633      6.01%     99.80% # Type of FU issued
system.cpu.iq.FU_type_0::MemWrite                1683      0.15%     99.94% # Type of FU issued
system.cpu.iq.FU_type_0::FloatMemRead             105      0.01%     99.95% # Type of FU issued
system.cpu.iq.FU_type_0::FloatMemWrite            544      0.05%    100.00% # Type of FU issued
system.cpu.iq.FU_type_0::IprAccess                  0      0.00%    100.00% # Type of FU issued
system.cpu.iq.FU_type_0::InstPrefetch               0      0.00%    100.00% # Type of FU issued
system.cpu.iq.FU_type_0::total                1142200                       # Type of FU issued
system.cpu.iq.fp_alu_accesses                    1507                       # Number of floating point alu accesses
system.cpu.iq.fp_inst_queue_reads                2965                       # Number of floating instruction queue reads
system.cpu.iq.fp_inst_queue_wakeup_accesses         1413                       # Number of floating instruction queue wakeup accesses
system.cpu.iq.fp_inst_queue_writes               1737                       # Number of floating instruction queue writes
system.cpu.iq.fu_busy_cnt                         330                       # FU busy when requested
system.cpu.iq.fu_busy_rate                   0.000289                       # FU busy rate (busy events/executed inst)
system.cpu.iq.fu_full::No_OpClass                   0      0.00%      0.00% # attempts to use FU when none available
system.cpu.iq.fu_full::IntAlu                     229     69.39%     69.39% # attempts to use FU when none available
system.cpu.iq.fu_full::IntMult                      0      0.00%     69.39% # attempts to use FU when none available
system.cpu.iq.fu_full::IntDiv                       0      0.00%     69.39% # attempts to use FU when none available
system.cpu.iq.fu_full::FloatAdd                     0      0.00%     69.39% # attempts to use FU when none available
system.cpu.iq.fu_full::FloatCmp                     0      0.00%     69.39% # attempts to use FU when none available
system.cpu.iq.fu_full::FloatCvt                     0      0.00%     69.39% # attempts to use FU when none available
system.cpu.iq.fu_full::FloatMult                    0      0.00%     69.39% # attempts to use FU when none available
system.cpu.iq.fu_full::FloatMultAcc                 0      0.00%     69.39% # attempts to use FU when none available
system.cpu.iq.fu_full::FloatDiv                     0      0.00%     69.39% # attempts to use FU when none available
system.cpu.iq.fu_full::FloatMisc                    0      0.00%     69.39% # attempts to use FU when none available
system.cpu.iq.fu_full::FloatSqrt                    0      0.00%     69.39% # attempts to use FU when none available
system.cpu.iq.fu_full::SimdAdd                      0      0.00%     69.39% # attempts to use FU when none available
system.cpu.iq.fu_full::SimdAddAcc                   0      0.00%     69.39% # attempts to use FU when none available
system.cpu.iq.fu_full::SimdAlu                     11      3.33%     72.73% # attempts to use FU when none available
system.cpu.iq.fu_full::SimdCmp                      0      0.00%     72.73% # attempts to use FU when none available
system.cpu.iq.fu_full::SimdCvt                      5      1.52%     74.24% # attempts to use FU when none available
system.cpu.iq.fu_full::SimdMisc                     5      1.52%     75.76% # attempts to use FU when none available
system.cpu.iq.fu_full::SimdMult                     0      0.00%     75.76% # attempts to use FU when none available
system.cpu.iq.fu_full::SimdMultAcc                  0      0.00%     75.76% # attempts to use FU when none available
system.cpu.iq.fu_full::SimdShift                    0      0.00%     75.76% # attempts to use FU when none available
system.cpu.iq.fu_full::SimdShiftAcc                 0      0.00%     75.76% # attempts to use FU when none available
system.cpu.iq.fu_full::SimdDiv                      0      0.00%     75.76% # attempts to use FU when none available
system.cpu.iq.fu_full::SimdSqrt                     0      0.00%     75.76% # attempts to use FU when none available
system.cpu.iq.fu_full::SimdFloatAdd                 0      0.00%     75.76% # attempts to use FU when none available
system.cpu.iq.fu_full::SimdFloatAlu                 0      0.00%     75.76% # attempts to use FU when none available
system.cpu.iq.fu_full::SimdFloatCmp                 0      0.00%     75.76% # attempts to use FU when none available
system.cpu.iq.fu_full::SimdFloatCvt                 0      0.00%     75.76% # attempts to use FU when none available
system.cpu.iq.fu_full::SimdFloatDiv                 0      0.00%     75.76% # attempts to use FU when none available
system.cpu.iq.fu_full::SimdFloatMisc                0      0.00%     75.76% # attempts to use FU when none available
system.cpu.iq.fu_full::SimdFloatMult                0      0.00%     75.76% # attempts to use FU when none available
system.cpu.iq.fu_full::SimdFloatMultAcc             0      0.00%     75.76% # attempts to use FU when none available
system.cpu.iq.fu_full::SimdFloatSqrt                0      0.00%     75.76% # attempts to use FU when none available
system.cpu.iq.fu_full::SimdReduceAdd                0      0.00%     75.76% # attempts to use FU when none available
system.cpu.iq.fu_full::SimdReduceAlu                0      0.00%     75.76% # attempts to use FU when none available
system.cpu.iq.fu_full::SimdReduceCmp                0      0.00%     75.76% # attempts to use FU when none available
system.cpu.iq.fu_full::SimdFloatReduceAdd            0      0.00%     75.76% # attempts to use FU when none available
system.cpu.iq.fu_full::SimdFloatReduceCmp            0      0.00%     75.76% # attempts to use FU when none available
system.cpu.iq.fu_full::SimdAes                      0      0.00%     75.76% # attempts to use FU when none available
system.cpu.iq.fu_full::SimdAesMix                   0      0.00%     75.76% # attempts to use FU when none available
system.cpu.iq.fu_full::SimdSha1Hash                 0      0.00%     75.76% # attempts to use FU when none available
system.cpu.iq.fu_full::SimdSha1Hash2                0      0.00%     75.76% # attempts to use FU when none available
system.cpu.iq.fu_full::SimdSha256Hash               0      0.00%     75.76% # attempts to use FU when none available
system.cpu.iq.fu_full::SimdSha256Hash2              0      0.00%     75.76% # attempts to use FU when none available
system.cpu.iq.fu_full::SimdShaSigma2                0      0.00%     75.76% # attempts to use FU when none available
system.cpu.iq.fu_full::SimdShaSigma3                0      0.00%     75.76% # attempts to use FU when none available
system.cpu.iq.fu_full::SimdPredAlu                  0      0.00%     75.76% # attempts to use FU when none available
system.cpu.iq.fu_full::MemRead                     24      7.27%     83.03% # attempts to use FU when none available
system.cpu.iq.fu_full::MemWrite                    17      5.15%     88.18% # attempts to use FU when none available
system.cpu.iq.fu_full::FloatMemRead                 6      1.82%     90.00% # attempts to use FU when none available
system.cpu.iq.fu_full::FloatMemWrite               33     10.00%    100.00% # attempts to use FU when none available
system.cpu.iq.fu_full::IprAccess                    0      0.00%    100.00% # attempts to use FU when none available
system.cpu.iq.fu_full::InstPrefetch                 0      0.00%    100.00% # attempts to use FU when none available
system.cpu.iq.int_alu_accesses                1140351                       # Number of integer alu accesses
system.cpu.iq.int_inst_queue_reads           10421439                       # Number of integer instruction queue reads
system.cpu.iq.int_inst_queue_wakeup_accesses      1139107                       # Number of integer instruction queue wakeup accesses
system.cpu.iq.int_inst_queue_writes           1157945                       # Number of integer instruction queue writes
system.cpu.iq.iqInstsAdded                    1145639                       # Number of instructions added to the IQ (excludes non-spec)
system.cpu.iq.iqInstsIssued                   1142200                       # Number of instructions issued
system.cpu.iq.iqSquashedInstsExamined           14027                       # Number of squashed instructions iterated over during squash; mainly for profiling
system.cpu.iq.iqSquashedInstsIssued                59                       # Number of squashed instructions issued
system.cpu.iq.iqSquashedOperandsExamined        16925                       # Number of squashed operands that are examined and possibly removed from graph
system.cpu.iq.issued_per_cycle::samples       8139621                       # Number of insts issued each cycle
system.cpu.iq.issued_per_cycle::mean         0.140326                       # Number of insts issued each cycle
system.cpu.iq.issued_per_cycle::stdev        0.447019                       # Number of insts issued each cycle
system.cpu.iq.issued_per_cycle::underflows            0      0.00%      0.00% # Number of insts issued each cycle
system.cpu.iq.issued_per_cycle::0             7285723     89.51%     89.51% # Number of insts issued each cycle
system.cpu.iq.issued_per_cycle::1              582322      7.15%     96.66% # Number of insts issued each cycle
system.cpu.iq.issued_per_cycle::2              263549      3.24%     99.90% # Number of insts issued each cycle
system.cpu.iq.issued_per_cycle::3                4298      0.05%     99.95% # Number of insts issued each cycle
system.cpu.iq.issued_per_cycle::4                1197      0.01%     99.97% # Number of insts issued each cycle
system.cpu.iq.issued_per_cycle::5                1019      0.01%     99.98% # Number of insts issued each cycle
system.cpu.iq.issued_per_cycle::6                 822      0.01%     99.99% # Number of insts issued each cycle
system.cpu.iq.issued_per_cycle::7                 457      0.01%    100.00% # Number of insts issued each cycle
system.cpu.iq.issued_per_cycle::8                 234      0.00%    100.00% # Number of insts issued each cycle
system.cpu.iq.issued_per_cycle::overflows            0      0.00%    100.00% # Number of insts issued each cycle
system.cpu.iq.issued_per_cycle::min_value            0                       # Number of insts issued each cycle
system.cpu.iq.issued_per_cycle::max_value            8                       # Number of insts issued each cycle
system.cpu.iq.issued_per_cycle::total         8139621                       # Number of insts issued each cycle
system.cpu.iq.rate                           0.139945                       # Inst issue rate
system.cpu.iq.vec_alu_accesses                      0                       # Number of vector alu accesses
system.cpu.iq.vec_inst_queue_reads                  0                       # Number of vector instruction queue reads
system.cpu.iq.vec_inst_queue_wakeup_accesses            0                       # Number of vector instruction queue wakeup accesses
system.cpu.iq.vec_inst_queue_writes                 0                       # Number of vector instruction queue writes
system.cpu.memDep0.conflictingLoads                28                       # Number of conflicting loads.
system.cpu.memDep0.conflictingStores               13                       # Number of conflicting stores.
system.cpu.memDep0.insertedLoads                68959                       # Number of loads inserted to the mem dependence unit.
system.cpu.memDep0.insertedStores                2601                       # Number of stores inserted to the mem dependence unit.
system.cpu.misc_regfile_reads                  208153                       # number of misc regfile reads
system.cpu.numCycles                          8161784                       # number of cpu cycles simulated
system.cpu.numWorkItemsCompleted                    0                       # number of work items this cpu completed
system.cpu.numWorkItemsStarted                      0                       # number of work items this cpu started
system.cpu.timesIdled                             316                       # Number of times that the entire CPU went into an idle state and unscheduled itself
system.cpu.workload.numSyscalls                    10                       # Number of system calls
system.l2bus.snoop_filter.hit_multi_requests            2                       # Number of requests hitting in the snoop filter with multiple (>1) holders of the requested data.
system.l2bus.snoop_filter.hit_multi_snoops            1                       # Number of snoops hitting in the snoop filter with multiple (>1) holders of the requested data.
system.l2bus.snoop_filter.hit_single_requests        61887                       # Number of requests hitting in the snoop filter with a single holder of the requested data.
system.l2bus.snoop_filter.hit_single_snoops        61722                       # Number of snoops hitting in the snoop filter with a single holder of the requested data.
system.l2bus.snoop_filter.tot_requests         125035                       # Total number of requests made to the snoop filter.
system.l2bus.snoop_filter.tot_snoops            61723                       # Total number of snoops made to the snoop filter.
system.membus.snoop_filter.hit_multi_requests            0                       # Number of requests hitting in the snoop filter with multiple (>1) holders of the requested data.
system.membus.snoop_filter.hit_multi_snoops            0                       # Number of snoops hitting in the snoop filter with multiple (>1) holders of the requested data.
system.membus.snoop_filter.hit_single_requests        60673                       # Number of requests hitting in the snoop filter with a single holder of the requested data.
system.membus.snoop_filter.hit_single_snoops            0                       # Number of snoops hitting in the snoop filter with a single holder of the requested data.
system.membus.snoop_filter.tot_requests        123038                       # Total number of requests made to the snoop filter.
system.membus.snoop_filter.tot_snoops               0                       # Total number of snoops made to the snoop filter.
system.clk_domain.clock                          1000                       # Clock period in ticks
system.clk_domain.voltage_domain.voltage            1                       # Voltage in Volts
system.cpu.branchPred.lookups                   69961                       # Number of BP lookups
system.cpu.branchPred.condPredicted             68789                       # Number of conditional branches predicted
system.cpu.branchPred.condIncorrect               718                       # Number of conditional branches incorrect
system.cpu.branchPred.BTBLookups                67599                       # Number of BTB lookups
system.cpu.branchPred.BTBHits                   66873                       # Number of BTB hits
system.cpu.branchPred.BTBHitPct             98.926020                       # BTB Hit Percentage
system.cpu.branchPred.RASUsed                     292                       # Number of times the RAS was used to get a target.
system.cpu.branchPred.RASIncorrect                  3                       # Number of incorrect RAS predictions.
system.cpu.branchPred.indirectLookups             287                       # Number of indirect predictor lookups.
system.cpu.branchPred.indirectHits                 10                       # Number of indirect target hits.
system.cpu.branchPred.indirectMisses              277                       # Number of indirect misses.
system.cpu.branchPred.indirectMispredicted           84                       # Number of mispredicted indirect branches.
system.cpu.commit.commitSquashedInsts           13860                       # The number of squashed insts skipped by commit
system.cpu.commit.branchMispredicts               567                       # The number of times a branch was mispredicted
system.cpu.commit.numCommittedDist::samples      8137423                       # Number of insts commited each cycle
system.cpu.commit.numCommittedDist::mean     0.139061                       # Number of insts commited each cycle
system.cpu.commit.numCommittedDist::stdev     0.552184                       # Number of insts commited each cycle
system.cpu.commit.numCommittedDist::underflows            0      0.00%      0.00% # Number of insts commited each cycle
system.cpu.commit.numCommittedDist::0         7476475     91.88%     91.88% # Number of insts commited each cycle
system.cpu.commit.numCommittedDist::1          395014      4.85%     96.73% # Number of insts commited each cycle
system.cpu.commit.numCommittedDist::2          131949      1.62%     98.35% # Number of insts commited each cycle
system.cpu.commit.numCommittedDist::3           66618      0.82%     99.17% # Number of insts commited each cycle
system.cpu.commit.numCommittedDist::4           66184      0.81%     99.99% # Number of insts commited each cycle
system.cpu.commit.numCommittedDist::5             270      0.00%     99.99% # Number of insts commited each cycle
system.cpu.commit.numCommittedDist::6             197      0.00%     99.99% # Number of insts commited each cycle
system.cpu.commit.numCommittedDist::7             164      0.00%     99.99% # Number of insts commited each cycle
system.cpu.commit.numCommittedDist::8             552      0.01%    100.00% # Number of insts commited each cycle
system.cpu.commit.numCommittedDist::overflows            0      0.00%    100.00% # Number of insts commited each cycle
system.cpu.commit.numCommittedDist::min_value            0                       # Number of insts commited each cycle
system.cpu.commit.numCommittedDist::max_value            8                       # Number of insts commited each cycle
system.cpu.commit.numCommittedDist::total      8137423                       # Number of insts commited each cycle
system.cpu.commit.instsCommitted               729871                       # Number of instructions committed
system.cpu.commit.opsCommitted                1131598                       # Number of ops (including micro ops) committed
system.cpu.commit.memRefs                       68827                       # Number of memory references committed
system.cpu.commit.loads                         67200                       # Number of loads committed
system.cpu.commit.amos                              0                       # Number of atomic instructions committed
system.cpu.commit.membars                           0                       # Number of memory barriers committed
system.cpu.commit.branches                      67416                       # Number of branches committed
system.cpu.commit.vector                            0                       # Number of committed Vector instructions.
system.cpu.commit.floating                       1267                       # Number of committed floating point instructions.
system.cpu.commit.integer                     1130784                       # Number of committed integer instructions.
system.cpu.commit.functionCalls                   147                       # Number of function calls committed.
system.cpu.commit.committedInstType_0::No_OpClass          286      0.03%      0.03% # Class of committed instruction
system.cpu.commit.committedInstType_0::IntAlu      1061895     93.84%     93.87% # Class of committed instruction
system.cpu.commit.committedInstType_0::IntMult            5      0.00%     93.87% # Class of committed instruction
system.cpu.commit.committedInstType_0::IntDiv           21      0.00%     93.87% # Class of committed instruction
system.cpu.commit.committedInstType_0::FloatAdd          135      0.01%     93.88% # Class of committed instruction
system.cpu.commit.committedInstType_0::FloatCmp            0      0.00%     93.88% # Class of committed instruction
system.cpu.commit.committedInstType_0::FloatCvt            0      0.00%     93.88% # Class of committed instruction
system.cpu.commit.committedInstType_0::FloatMult            0      0.00%     93.88% # Class of committed instruction
system.cpu.commit.committedInstType_0::FloatMultAcc            0      0.00%     93.88% # Class of committed instruction
system.cpu.commit.committedInstType_0::FloatDiv            0      0.00%     93.88% # Class of committed instruction
system.cpu.commit.committedInstType_0::FloatMisc            0      0.00%     93.88% # Class of committed instruction
system.cpu.commit.committedInstType_0::FloatSqrt            0      0.00%     93.88% # Class of committed instruction
system.cpu.commit.committedInstType_0::SimdAdd            0      0.00%     93.88% # Class of committed instruction
system.cpu.commit.committedInstType_0::SimdAddAcc            0      0.00%     93.88% # Class of committed instruction
system.cpu.commit.committedInstType_0::SimdAlu          100      0.01%     93.89% # Class of committed instruction
system.cpu.commit.committedInstType_0::SimdCmp           12      0.00%     93.89% # Class of committed instruction
system.cpu.commit.committedInstType_0::SimdCvt           74      0.01%     93.90% # Class of committed instruction
system.cpu.commit.committedInstType_0::SimdMisc          243      0.02%     93.92% # Class of committed instruction
system.cpu.commit.committedInstType_0::SimdMult            0      0.00%     93.92% # Class of committed instruction
system.cpu.commit.committedInstType_0::SimdMultAcc            0      0.00%     93.92% # Class of committed instruction
system.cpu.commit.committedInstType_0::SimdShift            0      0.00%     93.92% # Class of committed instruction
system.cpu.commit.committedInstType_0::SimdShiftAcc            0      0.00%     93.92% # Class of committed instruction
system.cpu.commit.committedInstType_0::SimdDiv            0      0.00%     93.92% # Class of committed instruction
system.cpu.commit.committedInstType_0::SimdSqrt            0      0.00%     93.92% # Class of committed instruction
system.cpu.commit.committedInstType_0::SimdFloatAdd            0      0.00%     93.92% # Class of committed instruction
system.cpu.commit.committedInstType_0::SimdFloatAlu            0      0.00%     93.92% # Class of committed instruction
system.cpu.commit.committedInstType_0::SimdFloatCmp            0      0.00%     93.92% # Class of committed instruction
system.cpu.commit.committedInstType_0::SimdFloatCvt            0      0.00%     93.92% # Class of committed instruction
system.cpu.commit.committedInstType_0::SimdFloatDiv            0      0.00%     93.92% # Class of committed instruction
system.cpu.commit.committedInstType_0::SimdFloatMisc            0      0.00%     93.92% # Class of committed instruction
system.cpu.commit.committedInstType_0::SimdFloatMult            0      0.00%     93.92% # Class of committed instruction
system.cpu.commit.committedInstType_0::SimdFloatMultAcc            0      0.00%     93.92% # Class of committed instruction
system.cpu.commit.committedInstType_0::SimdFloatSqrt            0      0.00%     93.92% # Class of committed instruction
system.cpu.commit.committedInstType_0::SimdReduceAdd            0      0.00%     93.92% # Class of committed instruction
system.cpu.commit.committedInstType_0::SimdReduceAlu            0      0.00%     93.92% # Class of committed instruction
system.cpu.commit.committedInstType_0::SimdReduceCmp            0      0.00%     93.92% # Class of committed instruction
system.cpu.commit.committedInstType_0::SimdFloatReduceAdd            0      0.00%     93.92% # Class of committed instruction
system.cpu.commit.committedInstType_0::SimdFloatReduceCmp            0      0.00%     93.92% # Class of committed instruction
system.cpu.commit.committedInstType_0::SimdAes            0      0.00%     93.92% # Class of committed instruction
system.cpu.commit.committedInstType_0::SimdAesMix            0      0.00%     93.92% # Class of committed instruction
system.cpu.commit.committedInstType_0::SimdSha1Hash            0      0.00%     93.92% # Class of committed instruction
system.cpu.commit.committedInstType_0::SimdSha1Hash2            0      0.00%     93.92% # Class of committed instruction
system.cpu.commit.committedInstType_0::SimdSha256Hash            0      0.00%     93.92% # Class of committed instruction
system.cpu.commit.committedInstType_0::SimdSha256Hash2            0      0.00%     93.92% # Class of committed instruction
system.cpu.commit.committedInstType_0::SimdShaSigma2            0      0.00%     93.92% # Class of committed instruction
system.cpu.commit.committedInstType_0::SimdShaSigma3            0      0.00%     93.92% # Class of committed instruction
system.cpu.commit.committedInstType_0::SimdPredAlu            0      0.00%     93.92% # Class of committed instruction
system.cpu.commit.committedInstType_0::MemRead        67122      5.93%     99.85% # Class of committed instruction
system.cpu.commit.committedInstType_0::MemWrite         1161      0.10%     99.95% # Class of committed instruction
system.cpu.commit.committedInstType_0::FloatMemRead           78      0.01%     99.96% # Class of committed instruction
system.cpu.commit.committedInstType_0::FloatMemWrite          466      0.04%    100.00% # Class of committed instruction
system.cpu.commit.committedInstType_0::IprAccess            0      0.00%    100.00% # Class of committed instruction
system.cpu.commit.committedInstType_0::InstPrefetch            0      0.00%    100.00% # Class of committed instruction
system.cpu.commit.committedInstType_0::total      1131598                       # Class of committed instruction
system.cpu.commit.commitEligibleSamples           552                       # number cycles where commit BW limit reached
system.cpu.dcache.demand_hits::.cpu.data         6967                       # number of demand (read+write) hits
system.cpu.dcache.demand_hits::total             6967                       # number of demand (read+write) hits
system.cpu.dcache.overall_hits::.cpu.data         6967                       # number of overall hits
system.cpu.dcache.overall_hits::total            6967                       # number of overall hits
system.cpu.dcache.demand_misses::.cpu.data        62874                       # number of demand (read+write) misses
system.cpu.dcache.demand_misses::total          62874                       # number of demand (read+write) misses
system.cpu.dcache.overall_misses::.cpu.data        62874                       # number of overall misses
system.cpu.dcache.overall_misses::total         62874                       # number of overall misses
system.cpu.dcache.demand_miss_latency::.cpu.data   7493248999                       # number of demand (read+write) miss cycles
system.cpu.dcache.demand_miss_latency::total   7493248999                       # number of demand (read+write) miss cycles
system.cpu.dcache.overall_miss_latency::.cpu.data   7493248999                       # number of overall miss cycles
system.cpu.dcache.overall_miss_latency::total   7493248999                       # number of overall miss cycles
system.cpu.dcache.demand_accesses::.cpu.data        69841                       # number of demand (read+write) accesses
system.cpu.dcache.demand_accesses::total        69841                       # number of demand (read+write) accesses
system.cpu.dcache.overall_accesses::.cpu.data        69841                       # number of overall (read+write) accesses
system.cpu.dcache.overall_accesses::total        69841                       # number of overall (read+write) accesses
system.cpu.dcache.demand_miss_rate::.cpu.data     0.900245                       # miss rate for demand accesses
system.cpu.dcache.demand_miss_rate::total     0.900245                       # miss rate for demand accesses
system.cpu.dcache.overall_miss_rate::.cpu.data     0.900245                       # miss rate for overall accesses
system.cpu.dcache.overall_miss_rate::total     0.900245                       # miss rate for overall accesses
system.cpu.dcache.demand_avg_miss_latency::.cpu.data 119178.817937                       # average overall miss latency
system.cpu.dcache.demand_avg_miss_latency::total 119178.817937                       # average overall miss latency
system.cpu.dcache.overall_avg_miss_latency::.cpu.data 119178.817937                       # average overall miss latency
system.cpu.dcache.overall_avg_miss_latency::total 119178.817937                       # average overall miss latency
system.cpu.dcache.blocked_cycles::no_mshrs         1005                       # number of cycles access was blocked
system.cpu.dcache.blocked_cycles::no_targets            0                       # number of cycles access was blocked
system.cpu.dcache.blocked::no_mshrs                32                       # number of cycles access was blocked
system.cpu.dcache.blocked::no_targets               0                       # number of cycles access was blocked
system.cpu.dcache.avg_blocked_cycles::no_mshrs    31.406250                       # average number of cycles each access was blocked
system.cpu.dcache.avg_blocked_cycles::no_targets          nan                       # average number of cycles each access was blocked
system.cpu.dcache.writebacks::.writebacks          143                       # number of writebacks
system.cpu.dcache.writebacks::total               143                       # number of writebacks
system.cpu.dcache.demand_mshr_hits::.cpu.data          214                       # number of demand (read+write) MSHR hits
system.cpu.dcache.demand_mshr_hits::total          214                       # number of demand (read+write) MSHR hits
system.cpu.dcache.overall_mshr_hits::.cpu.data          214                       # number of overall MSHR hits
system.cpu.dcache.overall_mshr_hits::total          214                       # number of overall MSHR hits
system.cpu.dcache.demand_mshr_misses::.cpu.data        62660                       # number of demand (read+write) MSHR misses
system.cpu.dcache.demand_mshr_misses::total        62660                       # number of demand (read+write) MSHR misses
system.cpu.dcache.overall_mshr_misses::.cpu.data        62660                       # number of overall MSHR misses
system.cpu.dcache.overall_mshr_misses::total        62660                       # number of overall MSHR misses
system.cpu.dcache.demand_mshr_miss_latency::.cpu.data   7351434999                       # number of demand (read+write) MSHR miss cycles
system.cpu.dcache.demand_mshr_miss_latency::total   7351434999                       # number of demand (read+write) MSHR miss cycles
system.cpu.dcache.overall_mshr_miss_latency::.cpu.data   7351434999                       # number of overall MSHR miss cycles
system.cpu.dcache.overall_mshr_miss_latency::total   7351434999                       # number of overall MSHR miss cycles
system.cpu.dcache.demand_mshr_miss_rate::.cpu.data     0.897181                       # mshr miss rate for demand accesses
system.cpu.dcache.demand_mshr_miss_rate::total     0.897181                       # mshr miss rate for demand accesses
system.cpu.dcache.overall_mshr_miss_rate::.cpu.data     0.897181                       # mshr miss rate for overall accesses
system.cpu.dcache.overall_mshr_miss_rate::total     0.897181                       # mshr miss rate for overall accesses
system.cpu.dcache.demand_avg_mshr_miss_latency::.cpu.data 117322.614092                       # average overall mshr miss latency
system.cpu.dcache.demand_avg_mshr_miss_latency::total 117322.614092                       # average overall mshr miss latency
system.cpu.dcache.overall_avg_mshr_miss_latency::.cpu.data 117322.614092                       # average overall mshr miss latency
system.cpu.dcache.overall_avg_mshr_miss_latency::total 117322.614092                       # average overall mshr miss latency
system.cpu.dcache.replacements                  61635                       # number of replacements
system.cpu.dcache.ReadReq_hits::.cpu.data         5463                       # number of ReadReq hits
system.cpu.dcache.ReadReq_hits::total            5463                       # number of ReadReq hits
system.cpu.dcache.ReadReq_misses::.cpu.data        62750                       # number of ReadReq misses
system.cpu.dcache.ReadReq_misses::total         62750                       # number of ReadReq misses
system.cpu.dcache.ReadReq_miss_latency::.cpu.data   7480247000                       # number of ReadReq miss cycles
system.cpu.dcache.ReadReq_miss_latency::total   7480247000                       # number of ReadReq miss cycles
system.cpu.dcache.ReadReq_accesses::.cpu.data        68213                       # number of ReadReq accesses(hits+misses)
system.cpu.dcache.ReadReq_accesses::total        68213                       # number of ReadReq accesses(hits+misses)
system.cpu.dcache.ReadReq_miss_rate::.cpu.data     0.919913                       # miss rate for ReadReq accesses
system.cpu.dcache.ReadReq_miss_rate::total     0.919913                       # miss rate for ReadReq accesses
system.cpu.dcache.ReadReq_avg_miss_latency::.cpu.data 119207.123506                       # average ReadReq miss latency
system.cpu.dcache.ReadReq_avg_miss_latency::total 119207.123506                       # average ReadReq miss latency
system.cpu.dcache.ReadReq_mshr_hits::.cpu.data          212                       # number of ReadReq MSHR hits
system.cpu.dcache.ReadReq_mshr_hits::total          212                       # number of ReadReq MSHR hits
system.cpu.dcache.ReadReq_mshr_misses::.cpu.data        62538                       # number of ReadReq MSHR misses
system.cpu.dcache.ReadReq_mshr_misses::total        62538                       # number of ReadReq MSHR misses
system.cpu.dcache.ReadReq_mshr_miss_latency::.cpu.data   7338696000                       # number of ReadReq MSHR miss cycles
system.cpu.dcache.ReadReq_mshr_miss_latency::total   7338696000                       # number of ReadReq MSHR miss cycles
system.cpu.dcache.ReadReq_mshr_miss_rate::.cpu.data     0.916805                       # mshr miss rate for ReadReq accesses
system.cpu.dcache.ReadReq_mshr_miss_rate::total     0.916805                       # mshr miss rate for ReadReq accesses
system.cpu.dcache.ReadReq_avg_mshr_miss_latency::.cpu.data 117347.788545                       # average ReadReq mshr miss latency
system.cpu.dcache.ReadReq_avg_mshr_miss_latency::total 117347.788545                       # average ReadReq mshr miss latency
system.cpu.dcache.WriteReq_hits::.cpu.data         1504                       # number of WriteReq hits
system.cpu.dcache.WriteReq_hits::total           1504                       # number of WriteReq hits
system.cpu.dcache.WriteReq_misses::.cpu.data          124                       # number of WriteReq misses
system.cpu.dcache.WriteReq_misses::total          124                       # number of WriteReq misses
system.cpu.dcache.WriteReq_miss_latency::.cpu.data     13001999                       # number of WriteReq miss cycles
system.cpu.dcache.WriteReq_miss_latency::total     13001999                       # number of WriteReq miss cycles
system.cpu.dcache.WriteReq_accesses::.cpu.data         1628                       # number of WriteReq accesses(hits+misses)
system.cpu.dcache.WriteReq_accesses::total         1628                       # number of WriteReq accesses(hits+misses)
system.cpu.dcache.WriteReq_miss_rate::.cpu.data     0.076167                       # miss rate for WriteReq accesses
system.cpu.dcache.WriteReq_miss_rate::total     0.076167                       # miss rate for WriteReq accesses
system.cpu.dcache.WriteReq_avg_miss_latency::.cpu.data 104854.830645                       # average WriteReq miss latency
system.cpu.dcache.WriteReq_avg_miss_latency::total 104854.830645                       # average WriteReq miss latency
system.cpu.dcache.WriteReq_mshr_hits::.cpu.data            2                       # number of WriteReq MSHR hits
system.cpu.dcache.WriteReq_mshr_hits::total            2                       # number of WriteReq MSHR hits
system.cpu.dcache.WriteReq_mshr_misses::.cpu.data          122                       # number of WriteReq MSHR misses
system.cpu.dcache.WriteReq_mshr_misses::total          122                       # number of WriteReq MSHR misses
system.cpu.dcache.WriteReq_mshr_miss_latency::.cpu.data     12738999                       # number of WriteReq MSHR miss cycles
system.cpu.dcache.WriteReq_mshr_miss_latency::total     12738999                       # number of WriteReq MSHR miss cycles
system.cpu.dcache.WriteReq_mshr_miss_rate::.cpu.data     0.074939                       # mshr miss rate for WriteReq accesses
system.cpu.dcache.WriteReq_mshr_miss_rate::total     0.074939                       # mshr miss rate for WriteReq accesses
system.cpu.dcache.WriteReq_avg_mshr_miss_latency::.cpu.data 104418.024590                       # average WriteReq mshr miss latency
system.cpu.dcache.WriteReq_avg_mshr_miss_latency::total 104418.024590                       # average WriteReq mshr miss latency
system.cpu.dcache.power_state.pwrStateResidencyTicks::UNDEFINED   8161783000                       # Cumulative time (in ticks) in various power states
system.cpu.dcache.tags.tagsinuse          1009.741224                       # Cycle average of tags in use
system.cpu.dcache.tags.total_refs               69628                       # Total number of references to valid blocks.
system.cpu.dcache.tags.sampled_refs             62659                       # Sample count of references to valid blocks.
system.cpu.dcache.tags.avg_refs              1.111221                       # Average number of references to valid blocks.
system.cpu.dcache.tags.warmup_cycle            222000                       # Cycle when the warmup percentage was hit.
system.cpu.dcache.tags.occ_blocks::.cpu.data  1009.741224                       # Average occupied blocks per requestor
system.cpu.dcache.tags.occ_percent::.cpu.data     0.986075                       # Average percentage of cache occupancy
system.cpu.dcache.tags.occ_percent::total     0.986075                       # Average percentage of cache occupancy
system.cpu.dcache.tags.occ_task_id_blocks::1024         1024                       # Occupied blocks per task id
system.cpu.dcache.tags.age_task_id_blocks_1024::0           84                       # Occupied blocks per task id
system.cpu.dcache.tags.age_task_id_blocks_1024::1          551                       # Occupied blocks per task id
system.cpu.dcache.tags.age_task_id_blocks_1024::2          389                       # Occupied blocks per task id
system.cpu.dcache.tags.occ_task_id_percent::1024            1                       # Percentage of cache occupancy per task id
system.cpu.dcache.tags.tag_accesses            202341                       # Number of tag accesses
system.cpu.dcache.tags.data_accesses           202341                       # Number of data accesses
system.cpu.dcache.tags.power_state.pwrStateResidencyTicks::UNDEFINED   8161783000                       # Cumulative time (in ticks) in various power states
system.cpu.decode.idleCycles                    73282                       # Number of cycles decode is idle
system.cpu.decode.blockedCycles               7920891                       # Number of cycles decode is blocked
system.cpu.decode.runCycles                      5106                       # Number of cycles decode is running
system.cpu.decode.unblockCycles                139749                       # Number of cycles decode is unblocking
system.cpu.decode.squashCycles                    593                       # Number of cycles decode is squashing
system.cpu.decode.branchResolved                67002                       # Number of times decode resolved a  branch
system.cpu.decode.branchMispred                   232                       # Number of times decode detected a branch misprediction
system.cpu.decode.decodedInsts                1149498                       # Number of instructions handled by decode
system.cpu.decode.squashedInsts                  1111                       # Number of squashed instructions handled by decode
system.cpu.dtb.rdAccesses                       68490                       # TLB accesses on read requests
system.cpu.dtb.wrAccesses                        2149                       # TLB accesses on write requests
system.cpu.dtb.rdMisses                         49672                       # TLB misses on read requests
system.cpu.dtb.wrMisses                            25                       # TLB misses on write requests
system.cpu.dtb.walker.power_state.pwrStateResidencyTicks::UNDEFINED   8161783000                       # Cumulative time (in ticks) in various power states
system.cpu.fetch.icacheStallCycles              17043                       # Number of cycles fetch is stalled on an Icache miss
system.cpu.fetch.insts                         741369                       # Number of instructions fetch has processed
system.cpu.fetch.branches                       69961                       # Number of branches that fetch encountered
system.cpu.fetch.predictedBranches              67175                       # Number of branches that fetch has predicted taken
system.cpu.fetch.cycles                       8121200                       # Number of cycles fetch has run and was not squashing or blocked
system.cpu.fetch.squashCycles                    1632                       # Number of cycles fetch has spent squashing
system.cpu.fetch.miscStallCycles                   83                       # Number of cycles fetch has spent waiting on interrupts,or bad addresses, or out of MSHRs
system.cpu.fetch.pendingTrapStallCycles           464                       # Number of stall cycles due to pending traps
system.cpu.fetch.pendingQuiesceStallCycles            4                       # Number of stall cycles due to pending quiesce instructions
system.cpu.fetch.icacheWaitRetryStallCycles           11                       # Number of stall cycles due to full MSHR
system.cpu.fetch.cacheLines                      3183                       # Number of cache lines fetched
system.cpu.fetch.icacheSquashes                   377                       # Number of outstanding Icache misses that were squashed
system.cpu.fetch.nisnDist::samples            8139621                       # Number of instructions fetched each cycle (Total)
system.cpu.fetch.nisnDist::mean              0.141734                       # Number of instructions fetched each cycle (Total)
system.cpu.fetch.nisnDist::stdev             0.969790                       # Number of instructions fetched each cycle (Total)
system.cpu.fetch.nisnDist::underflows               0      0.00%      0.00% # Number of instructions fetched each cycle (Total)
system.cpu.fetch.nisnDist::0                  7936714     97.51%     97.51% # Number of instructions fetched each cycle (Total)
system.cpu.fetch.nisnDist::1                    16698      0.21%     97.71% # Number of instructions fetched each cycle (Total)
system.cpu.fetch.nisnDist::2                    16660      0.20%     97.92% # Number of instructions fetched each cycle (Total)
system.cpu.fetch.nisnDist::3                    16910      0.21%     98.12% # Number of instructions fetched each cycle (Total)
system.cpu.fetch.nisnDist::4                    16965      0.21%     98.33% # Number of instructions fetched each cycle (Total)
system.cpu.fetch.nisnDist::5                    16701      0.21%     98.54% # Number of instructions fetched each cycle (Total)
system.cpu.fetch.nisnDist::6                    16790      0.21%     98.74% # Number of instructions fetched each cycle (Total)
system.cpu.fetch.nisnDist::7                    16659      0.20%     98.95% # Number of instructions fetched each cycle (Total)
system.cpu.fetch.nisnDist::8                    85524      1.05%    100.00% # Number of instructions fetched each cycle (Total)
system.cpu.fetch.nisnDist::overflows                0      0.00%    100.00% # Number of instructions fetched each cycle (Total)
system.cpu.fetch.nisnDist::min_value                0                       # Number of instructions fetched each cycle (Total)
system.cpu.fetch.nisnDist::max_value                8                       # Number of instructions fetched each cycle (Total)
system.cpu.fetch.nisnDist::total              8139621                       # Number of instructions fetched each cycle (Total)
system.cpu.fetch.branchRate                  0.008572                       # Number of branch fetches per cycle
system.cpu.fetch.rate                        0.090834                       # Number of inst fetches per cycle
system.cpu.icache.demand_hits::.cpu.inst         2551                       # number of demand (read+write) hits
system.cpu.icache.demand_hits::total             2551                       # number of demand (read+write) hits
system.cpu.icache.overall_hits::.cpu.inst         2551                       # number of overall hits
system.cpu.icache.overall_hits::total            2551                       # number of overall hits
system.cpu.icache.demand_misses::.cpu.inst          632                       # number of demand (read+write) misses
system.cpu.icache.demand_misses::total            632                       # number of demand (read+write) misses
system.cpu.icache.overall_misses::.cpu.inst          632                       # number of overall misses
system.cpu.icache.overall_misses::total           632                       # number of overall misses
system.cpu.icache.demand_miss_latency::.cpu.inst     61970000                       # number of demand (read+write) miss cycles
system.cpu.icache.demand_miss_latency::total     61970000                       # number of demand (read+write) miss cycles
system.cpu.icache.overall_miss_latency::.cpu.inst     61970000                       # number of overall miss cycles
system.cpu.icache.overall_miss_latency::total     61970000                       # number of overall miss cycles
system.cpu.icache.demand_accesses::.cpu.inst         3183                       # number of demand (read+write) accesses
system.cpu.icache.demand_accesses::total         3183                       # number of demand (read+write) accesses
system.cpu.icache.overall_accesses::.cpu.inst         3183                       # number of overall (read+write) accesses
system.cpu.icache.overall_accesses::total         3183                       # number of overall (read+write) accesses
system.cpu.icache.demand_miss_rate::.cpu.inst     0.198555                       # miss rate for demand accesses
system.cpu.icache.demand_miss_rate::total     0.198555                       # miss rate for demand accesses
system.cpu.icache.overall_miss_rate::.cpu.inst     0.198555                       # miss rate for overall accesses
system.cpu.icache.overall_miss_rate::total     0.198555                       # miss rate for overall accesses
system.cpu.icache.demand_avg_miss_latency::.cpu.inst 98053.797468                       # average overall miss latency
system.cpu.icache.demand_avg_miss_latency::total 98053.797468                       # average overall miss latency
system.cpu.icache.overall_avg_miss_latency::.cpu.inst 98053.797468                       # average overall miss latency
system.cpu.icache.overall_avg_miss_latency::total 98053.797468                       # average overall miss latency
system.cpu.icache.blocked_cycles::no_mshrs          190                       # number of cycles access was blocked
system.cpu.icache.blocked_cycles::no_targets            0                       # number of cycles access was blocked
system.cpu.icache.blocked::no_mshrs                 3                       # number of cycles access was blocked
system.cpu.icache.blocked::no_targets               0                       # number of cycles access was blocked
system.cpu.icache.avg_blocked_cycles::no_mshrs    63.333333                       # average number of cycles each access was blocked
system.cpu.icache.avg_blocked_cycles::no_targets          nan                       # average number of cycles each access was blocked
system.cpu.icache.demand_mshr_hits::.cpu.inst          143                       # number of demand (read+write) MSHR hits
system.cpu.icache.demand_mshr_hits::total          143                       # number of demand (read+write) MSHR hits
system.cpu.icache.overall_mshr_hits::.cpu.inst          143                       # number of overall MSHR hits
system.cpu.icache.overall_mshr_hits::total          143                       # number of overall MSHR hits
system.cpu.icache.demand_mshr_misses::.cpu.inst          489                       # number of demand (read+write) MSHR misses
system.cpu.icache.demand_mshr_misses::total          489                       # number of demand (read+write) MSHR misses
system.cpu.icache.overall_mshr_misses::.cpu.inst          489                       # number of overall MSHR misses
system.cpu.icache.overall_mshr_misses::total          489                       # number of overall MSHR misses
system.cpu.icache.demand_mshr_miss_latency::.cpu.inst     50710000                       # number of demand (read+write) MSHR miss cycles
system.cpu.icache.demand_mshr_miss_latency::total     50710000                       # number of demand (read+write) MSHR miss cycles
system.cpu.icache.overall_mshr_miss_latency::.cpu.inst     50710000                       # number of overall MSHR miss cycles
system.cpu.icache.overall_mshr_miss_latency::total     50710000                       # number of overall MSHR miss cycles
system.cpu.icache.demand_mshr_miss_rate::.cpu.inst     0.153629                       # mshr miss rate for demand accesses
system.cpu.icache.demand_mshr_miss_rate::total     0.153629                       # mshr miss rate for demand accesses
system.cpu.icache.overall_mshr_miss_rate::.cpu.inst     0.153629                       # mshr miss rate for overall accesses
system.cpu.icache.overall_mshr_miss_rate::total     0.153629                       # mshr miss rate for overall accesses
system.cpu.icache.demand_avg_mshr_miss_latency::.cpu.inst 103701.431493                       # average overall mshr miss latency
system.cpu.icache.demand_avg_mshr_miss_latency::total 103701.431493                       # average overall mshr miss latency
system.cpu.icache.overall_avg_mshr_miss_latency::.cpu.inst 103701.431493                       # average overall mshr miss latency
system.cpu.icache.overall_avg_mshr_miss_latency::total 103701.431493                       # average overall mshr miss latency
system.cpu.icache.replacements                    251                       # number of replacements
system.cpu.icache.ReadReq_hits::.cpu.inst         2551                       # number of ReadReq hits
system.cpu.icache.ReadReq_hits::total            2551                       # number of ReadReq hits
system.cpu.icache.ReadReq_misses::.cpu.inst          632                       # number of ReadReq misses
system.cpu.icache.ReadReq_misses::total           632                       # number of ReadReq misses
system.cpu.icache.ReadReq_miss_latency::.cpu.inst     61970000                       # number of ReadReq miss cycles
system.cpu.icache.ReadReq_miss_latency::total     61970000                       # number of ReadReq miss cycles
system.cpu.icache.ReadReq_accesses::.cpu.inst         3183                       # number of ReadReq accesses(hits+misses)
system.cpu.icache.ReadReq_accesses::total         3183                       # number of ReadReq accesses(hits+misses)
system.cpu.icache.ReadReq_miss_rate::.cpu.inst     0.198555                       # miss rate for ReadReq accesses
system.cpu.icache.ReadReq_miss_rate::total     0.198555                       # miss rate for ReadReq accesses
system.cpu.icache.ReadReq_avg_miss_latency::.cpu.inst 98053.797468                       # average ReadReq miss latency
system.cpu.icache.ReadReq_avg_miss_latency::total 98053.797468                       # average ReadReq miss latency
system.cpu.icache.ReadReq_mshr_hits::.cpu.inst          143                       # number of ReadReq MSHR hits
system.cpu.icache.ReadReq_mshr_hits::total          143                       # number of ReadReq MSHR hits
system.cpu.icache.ReadReq_mshr_misses::.cpu.inst          489                       # number of ReadReq MSHR misses
system.cpu.icache.ReadReq_mshr_misses::total          489                       # number of ReadReq MSHR misses
system.cpu.icache.ReadReq_mshr_miss_latency::.cpu.inst     50710000                       # number of ReadReq MSHR miss cycles
system.cpu.icache.ReadReq_mshr_miss_latency::total     50710000                       # number of ReadReq MSHR miss cycles
system.cpu.icache.ReadReq_mshr_miss_rate::.cpu.inst     0.153629                       # mshr miss rate for ReadReq accesses
system.cpu.icache.ReadReq_mshr_miss_rate::total     0.153629                       # mshr miss rate for ReadReq accesses
system.cpu.icache.ReadReq_avg_mshr_miss_latency::.cpu.inst 103701.431493                       # average ReadReq mshr miss latency
system.cpu.icache.ReadReq_avg_mshr_miss_latency::total 103701.431493                       # average ReadReq mshr miss latency
system.cpu.icache.power_state.pwrStateResidencyTicks::UNDEFINED   8161783000                       # Cumulative time (in ticks) in various power states
system.cpu.icache.tags.tagsinuse           237.450448                       # Cycle average of tags in use
system.cpu.icache.tags.total_refs                3040                       # Total number of references to valid blocks.
system.cpu.icache.tags.sampled_refs               489                       # Sample count of references to valid blocks.
system.cpu.icache.tags.avg_refs              6.216769                       # Average number of references to valid blocks.
system.cpu.icache.tags.warmup_cycle            107000                       # Cycle when the warmup percentage was hit.
system.cpu.icache.tags.occ_blocks::.cpu.inst   237.450448                       # Average occupied blocks per requestor
system.cpu.icache.tags.occ_percent::.cpu.inst     0.927541                       # Average percentage of cache occupancy
system.cpu.icache.tags.occ_percent::total     0.927541                       # Average percentage of cache occupancy
system.cpu.icache.tags.occ_task_id_blocks::1024          237                       # Occupied blocks per task id
system.cpu.icache.tags.age_task_id_blocks_1024::0           31                       # Occupied blocks per task id
system.cpu.icache.tags.age_task_id_blocks_1024::3          206                       # Occupied blocks per task id
system.cpu.icache.tags.occ_task_id_percent::1024     0.925781                       # Percentage of cache occupancy per task id
system.cpu.icache.tags.tag_accesses              6855                       # Number of tag accesses
system.cpu.icache.tags.data_accesses             6855                       # Number of data accesses
system.cpu.icache.tags.power_state.pwrStateResidencyTicks::UNDEFINED   8161783000                       # Cumulative time (in ticks) in various power states
system.cpu.interrupts.clk_domain.clock          16000                       # Clock period in ticks
system.cpu.itb.rdAccesses                           0                       # TLB accesses on read requests
system.cpu.itb.wrAccesses                        3266                       # TLB accesses on write requests
system.cpu.itb.rdMisses                             0                       # TLB misses on read requests
system.cpu.itb.wrMisses                           127                       # TLB misses on write requests
system.cpu.itb.walker.power_state.pwrStateResidencyTicks::UNDEFINED   8161783000                       # Cumulative time (in ticks) in various power states
system.cpu.lsq0.forwLoads                         182                       # Number of loads that had data forwarded from stores
system.cpu.lsq0.squashedLoads                    1759                       # Number of loads squashed
system.cpu.lsq0.ignoredResponses                    2                       # Number of memory responses ignored because the instruction is squashed
system.cpu.lsq0.memOrderViolation                  16                       # Number of memory ordering violations
system.cpu.lsq0.squashedStores                    974                       # Number of stores squashed
system.cpu.lsq0.rescheduledLoads                    0                       # Number of loads that were rescheduled
system.cpu.lsq0.blockedByCache                     28                       # Number of times an access to memory failed due to the cache being blocked
system.cpu.power_state.pwrStateResidencyTicks::ON   8161783000                       # Cumulative time (in ticks) in various power states
system.cpu.rename.squashCycles                    593                       # Number of cycles rename is squashing
system.cpu.rename.idleCycles                    99076                       # Number of cycles rename is idle
system.cpu.rename.blockCycles                 7323447                       # Number of cycles rename is blocking
system.cpu.rename.serializeStallCycles            459                       # count of cycles rename stalledfor serializing inst
system.cpu.rename.runCycles                     95709                       # Number of cycles rename is running
system.cpu.rename.unblockCycles                620337                       # Number of cycles rename is unblocking
system.cpu.rename.renamedInsts                1148155                       # Number of instructions processed by rename
system.cpu.rename.ROBFullEvents                    49                       # Number of times rename has blocked due to ROB full
system.cpu.rename.IQFullEvents                 592223                       # Number of times rename has blocked due to IQ full
system.cpu.rename.SQFullEvents                   4436                       # Number of times rename has blocked due to SQ full
system.cpu.rename.renamedOperands             2134696                       # Number of destination operands rename has renamed
system.cpu.rename.lookups                     2639011                       # Number of register rename lookups that rename has made
system.cpu.rename.intLookups                  1752363                       # Number of integer rename lookups
system.cpu.rename.fpLookups                      1851                       # Number of floating rename lookups
system.cpu.rename.committedMaps               2116750                       # Number of HB maps that are committed
system.cpu.rename.undoneMaps                    17932                       # Number of HB maps that are undone due to squashing
system.cpu.rename.serializing                      13                       # count of serializing insts renamed
system.cpu.rename.tempSerializing                  15                       # count of temporary serializing insts renamed
system.cpu.rename.skidInsts                    834025                       # count of insts added to the skid buffer
system.cpu.rob.reads                          9282173                       # The number of ROB reads
system.cpu.rob.writes                         2293144                       # The number of ROB writes
system.cpu.thread_0.numInsts                   729871                       # Number of Instructions committed
system.cpu.thread_0.numOps                    1131598                       # Number of Ops committed
system.cpu.thread_0.numMemRefs                      0                       # Number of Memory References
system.l2bus.trans_dist::ReadResp               63027                       # Transaction distribution
system.l2bus.trans_dist::WritebackDirty           146                       # Transaction distribution
system.l2bus.trans_dist::CleanEvict            123621                       # Transaction distribution
system.l2bus.trans_dist::UpgradeReq                 1                       # Transaction distribution
system.l2bus.trans_dist::UpgradeResp                1                       # Transaction distribution
system.l2bus.trans_dist::ReadExReq                121                       # Transaction distribution
system.l2bus.trans_dist::ReadExResp               121                       # Transaction distribution
system.l2bus.trans_dist::ReadSharedReq          63027                       # Transaction distribution
system.l2bus.pkt_count_system.cpu.icache.mem_side_port::system.l2cache.cpu_side_port         1229                       # Packet count per connected requestor and responder (bytes)
system.l2bus.pkt_count_system.cpu.dcache.mem_side_port::system.l2cache.cpu_side_port       186955                       # Packet count per connected requestor and responder (bytes)
system.l2bus.pkt_count::total                  188184                       # Packet count per connected requestor and responder (bytes)
system.l2bus.pkt_size_system.cpu.icache.mem_side_port::system.l2cache.cpu_side_port        31296                       # Cumulative packet size per connected requestor and responder (bytes)
system.l2bus.pkt_size_system.cpu.dcache.mem_side_port::system.l2cache.cpu_side_port      4019328                       # Cumulative packet size per connected requestor and responder (bytes)
system.l2bus.pkt_size::total                  4050624                       # Cumulative packet size per connected requestor and responder (bytes)
system.l2bus.snoops                             61881                       # Total snoops (count)
system.l2bus.snoopTraffic                         192                       # Total snoop traffic (bytes)
system.l2bus.snoop_fanout::samples             125030                       # Request fanout histogram
system.l2bus.snoop_fanout::mean              0.493698                       # Request fanout histogram
system.l2bus.snoop_fanout::stdev             0.499978                       # Request fanout histogram
system.l2bus.snoop_fanout::underflows               0      0.00%      0.00% # Request fanout histogram
system.l2bus.snoop_fanout::0                    63304     50.63%     50.63% # Request fanout histogram
system.l2bus.snoop_fanout::1                    61725     49.37%    100.00% # Request fanout histogram
system.l2bus.snoop_fanout::2                        1      0.00%    100.00% # Request fanout histogram
system.l2bus.snoop_fanout::overflows                0      0.00%    100.00% # Request fanout histogram
system.l2bus.snoop_fanout::min_value                0                       # Request fanout histogram
system.l2bus.snoop_fanout::max_value                2                       # Request fanout histogram
system.l2bus.snoop_fanout::total               125030                       # Request fanout histogram
system.l2bus.power_state.pwrStateResidencyTicks::UNDEFINED   8161783000                       # Cumulative time (in ticks) in various power states
system.l2bus.reqLayer0.occupancy            125321000                       # Layer occupancy (ticks)
system.l2bus.reqLayer0.utilization                1.5                       # Layer utilization (%)
system.l2bus.respLayer0.occupancy             1467000                       # Layer occupancy (ticks)
system.l2bus.respLayer0.utilization               0.0                       # Layer utilization (%)
system.l2bus.respLayer1.occupancy           187978000                       # Layer occupancy (ticks)
system.l2bus.respLayer1.utilization               2.3                       # Layer utilization (%)
system.l2cache.demand_hits::.cpu.data             781                       # number of demand (read+write) hits
system.l2cache.demand_hits::total                 781                       # number of demand (read+write) hits
system.l2cache.overall_hits::.cpu.data            781                       # number of overall hits
system.l2cache.overall_hits::total                781                       # number of overall hits
system.l2cache.demand_misses::.cpu.inst           489                       # number of demand (read+write) misses
system.l2cache.demand_misses::.cpu.data         61878                       # number of demand (read+write) misses
system.l2cache.demand_misses::total             62367                       # number of demand (read+write) misses
system.l2cache.overall_misses::.cpu.inst          489                       # number of overall misses
system.l2cache.overall_misses::.cpu.data        61878                       # number of overall misses
system.l2cache.overall_misses::total            62367                       # number of overall misses
system.l2cache.demand_miss_latency::.cpu.inst     49240000                       # number of demand (read+write) miss cycles
system.l2cache.demand_miss_latency::.cpu.data   7146992000                       # number of demand (read+write) miss cycles
system.l2cache.demand_miss_latency::total   7196232000                       # number of demand (read+write) miss cycles
system.l2cache.overall_miss_latency::.cpu.inst     49240000                       # number of overall miss cycles
system.l2cache.overall_miss_latency::.cpu.data   7146992000                       # number of overall miss cycles
system.l2cache.overall_miss_latency::total   7196232000                       # number of overall miss cycles
system.l2cache.demand_accesses::.cpu.inst          489                       # number of demand (read+write) accesses
system.l2cache.demand_accesses::.cpu.data        62659                       # number of demand (read+write) accesses
system.l2cache.demand_accesses::total           63148                       # number of demand (read+write) accesses
system.l2cache.overall_accesses::.cpu.inst          489                       # number of overall (read+write) accesses
system.l2cache.overall_accesses::.cpu.data        62659                       # number of overall (read+write) accesses
system.l2cache.overall_accesses::total          63148                       # number of overall (read+write) accesses
system.l2cache.demand_miss_rate::.cpu.inst            1                       # miss rate for demand accesses
system.l2cache.demand_miss_rate::.cpu.data     0.987536                       # miss rate for demand accesses
system.l2cache.demand_miss_rate::total       0.987632                       # miss rate for demand accesses
system.l2cache.overall_miss_rate::.cpu.inst            1                       # miss rate for overall accesses
system.l2cache.overall_miss_rate::.cpu.data     0.987536                       # miss rate for overall accesses
system.l2cache.overall_miss_rate::total      0.987632                       # miss rate for overall accesses
system.l2cache.demand_avg_miss_latency::.cpu.inst 100695.296524                       # average overall miss latency
system.l2cache.demand_avg_miss_latency::.cpu.data 115501.341349                       # average overall miss latency
system.l2cache.demand_avg_miss_latency::total 115385.251816                       # average overall miss latency
system.l2cache.overall_avg_miss_latency::.cpu.inst 100695.296524                       # average overall miss latency
system.l2cache.overall_avg_miss_latency::.cpu.data 115501.341349                       # average overall miss latency
system.l2cache.overall_avg_miss_latency::total 115385.251816                       # average overall miss latency
system.l2cache.blocked_cycles::no_mshrs             0                       # number of cycles access was blocked
system.l2cache.blocked_cycles::no_targets            0                       # number of cycles access was blocked
system.l2cache.blocked::no_mshrs                    0                       # number of cycles access was blocked
system.l2cache.blocked::no_targets                  0                       # number of cycles access was blocked
system.l2cache.avg_blocked_cycles::no_mshrs          nan                       # average number of cycles each access was blocked
system.l2cache.avg_blocked_cycles::no_targets          nan                       # average number of cycles each access was blocked
system.l2cache.writebacks::.writebacks              3                       # number of writebacks
system.l2cache.writebacks::total                    3                       # number of writebacks
system.l2cache.demand_mshr_misses::.cpu.inst          489                       # number of demand (read+write) MSHR misses
system.l2cache.demand_mshr_misses::.cpu.data        61878                       # number of demand (read+write) MSHR misses
system.l2cache.demand_mshr_misses::total        62367                       # number of demand (read+write) MSHR misses
system.l2cache.overall_mshr_misses::.cpu.inst          489                       # number of overall MSHR misses
[...]
system.mem_ctrl.requestorReadRate::.cpu.data 485195943.092336535454                       # Per-requestor bytes read from memory rate (Bytes/sec)
system.mem_ctrl.requestorWriteRate::.writebacks 878239.472919091233                       # Per-requestor bytes write to memory rate (Bytes/sec)
system.mem_ctrl.requestorReadAccesses::.cpu.inst          489                       # Per-requestor read serviced memory accesses
system.mem_ctrl.requestorReadAccesses::.cpu.data        61878                       # Per-requestor read serviced memory accesses
system.mem_ctrl.requestorWriteAccesses::.writebacks          143                       # Per-requestor write serviced memory accesses
system.mem_ctrl.requestorReadTotalLat::.cpu.inst     14341250                       # Per-requestor read total memory access latency
system.mem_ctrl.requestorReadTotalLat::.cpu.data   2714182250                       # Per-requestor read total memory access latency
system.mem_ctrl.requestorWriteTotalLat::.writebacks   5354347250                       # Per-requestor write total memory access latency
system.mem_ctrl.requestorReadAvgLat::.cpu.inst     29327.71                       # Per-requestor read average memory access latency
system.mem_ctrl.requestorReadAvgLat::.cpu.data     43863.45                       # Per-requestor read average memory access latency
system.mem_ctrl.requestorWriteAvgLat::.writebacks  37442987.76                       # Per-requestor write average memory access latency
system.mem_ctrl.dram.bytes_read::.cpu.inst        31296                       # Number of bytes read from this memory
system.mem_ctrl.dram.bytes_read::.cpu.data      3960192                       # Number of bytes read from this memory
system.mem_ctrl.dram.bytes_read::total        3991488                       # Number of bytes read from this memory
system.mem_ctrl.dram.bytes_inst_read::.cpu.inst        31296                       # Number of instructions bytes read from this memory
system.mem_ctrl.dram.bytes_inst_read::total        31296                       # Number of instructions bytes read from this memory
system.mem_ctrl.dram.bytes_written::.writebacks         9152                       # Number of bytes written to this memory
system.mem_ctrl.dram.bytes_written::total         9152                       # Number of bytes written to this memory
system.mem_ctrl.dram.num_reads::.cpu.inst          489                       # Number of read requests responded to by this memory
system.mem_ctrl.dram.num_reads::.cpu.data        61878                       # Number of read requests responded to by this memory
system.mem_ctrl.dram.num_reads::total           62367                       # Number of read requests responded to by this memory
system.mem_ctrl.dram.num_writes::.writebacks          143                       # Number of write requests responded to by this memory
system.mem_ctrl.dram.num_writes::total            143                       # Number of write requests responded to by this memory
system.mem_ctrl.dram.bw_read::.cpu.inst       3834456                       # Total read bandwidth from this memory (bytes/s)
system.mem_ctrl.dram.bw_read::.cpu.data     485211626                       # Total read bandwidth from this memory (bytes/s)
system.mem_ctrl.dram.bw_read::total         489046082                       # Total read bandwidth from this memory (bytes/s)
system.mem_ctrl.dram.bw_inst_read::.cpu.inst      3834456                       # Instruction read bandwidth from this memory (bytes/s)
system.mem_ctrl.dram.bw_inst_read::total      3834456                       # Instruction read bandwidth from this memory (bytes/s)
system.mem_ctrl.dram.bw_write::.writebacks      1121324                       # Write bandwidth from this memory (bytes/s)
system.mem_ctrl.dram.bw_write::total          1121324                       # Write bandwidth from this memory (bytes/s)
system.mem_ctrl.dram.bw_total::.writebacks      1121324                       # Total bandwidth to/from this memory (bytes/s)
system.mem_ctrl.dram.bw_total::.cpu.inst      3834456                       # Total bandwidth to/from this memory (bytes/s)
system.mem_ctrl.dram.bw_total::.cpu.data    485211626                       # Total bandwidth to/from this memory (bytes/s)
system.mem_ctrl.dram.bw_total::total        490167406                       # Total bandwidth to/from this memory (bytes/s)
system.mem_ctrl.dram.readBursts                 62365                       # Number of DRAM read bursts
system.mem_ctrl.dram.writeBursts                  112                       # Number of DRAM write bursts
system.mem_ctrl.dram.perBankRdBursts::0          3955                       # Per bank write bursts
system.mem_ctrl.dram.perBankRdBursts::1          3945                       # Per bank write bursts
system.mem_ctrl.dram.perBankRdBursts::2          3864                       # Per bank write bursts
system.mem_ctrl.dram.perBankRdBursts::3          3916                       # Per bank write bursts
system.mem_ctrl.dram.perBankRdBursts::4          3871                       # Per bank write bursts
system.mem_ctrl.dram.perBankRdBursts::5          3864                       # Per bank write bursts
system.mem_ctrl.dram.perBankRdBursts::6          3919                       # Per bank write bursts
system.mem_ctrl.dram.perBankRdBursts::7          3899                       # Per bank write bursts
system.mem_ctrl.dram.perBankRdBursts::8          3882                       # Per bank write bursts
system.mem_ctrl.dram.perBankRdBursts::9          3839                       # Per bank write bursts
system.mem_ctrl.dram.perBankRdBursts::10         3880                       # Per bank write bursts
system.mem_ctrl.dram.perBankRdBursts::11         3868                       # Per bank write bursts
system.mem_ctrl.dram.perBankRdBursts::12         3886                       # Per bank write bursts
system.mem_ctrl.dram.perBankRdBursts::13         3873                       # Per bank write bursts
system.mem_ctrl.dram.perBankRdBursts::14         3921                       # Per bank write bursts
system.mem_ctrl.dram.perBankRdBursts::15         3983                       # Per bank write bursts
system.mem_ctrl.dram.perBankWrBursts::0            17                       # Per bank write bursts
system.mem_ctrl.dram.perBankWrBursts::1            18                       # Per bank write bursts
system.mem_ctrl.dram.perBankWrBursts::2             5                       # Per bank write bursts
system.mem_ctrl.dram.perBankWrBursts::3            41                       # Per bank write bursts
system.mem_ctrl.dram.perBankWrBursts::4             0                       # Per bank write bursts
system.mem_ctrl.dram.perBankWrBursts::5             0                       # Per bank write bursts
system.mem_ctrl.dram.perBankWrBursts::6             0                       # Per bank write bursts
system.mem_ctrl.dram.perBankWrBursts::7             0                       # Per bank write bursts
system.mem_ctrl.dram.perBankWrBursts::8             0                       # Per bank write bursts
system.mem_ctrl.dram.perBankWrBursts::9             0                       # Per bank write bursts
system.mem_ctrl.dram.perBankWrBursts::10            0                       # Per bank write bursts
system.mem_ctrl.dram.perBankWrBursts::11            0                       # Per bank write bursts
system.mem_ctrl.dram.perBankWrBursts::12            0                       # Per bank write bursts
system.mem_ctrl.dram.perBankWrBursts::13            0                       # Per bank write bursts
system.mem_ctrl.dram.perBankWrBursts::14            0                       # Per bank write bursts
system.mem_ctrl.dram.perBankWrBursts::15           31                       # Per bank write bursts
system.mem_ctrl.dram.totQLat               1559179750                       # Total ticks spent queuing
system.mem_ctrl.dram.totBusLat              311825000                       # Total ticks spent in databus transfers
system.mem_ctrl.dram.totMemAccLat          2728523500                       # Total ticks spent from burst creation until serviced by the DRAM
system.mem_ctrl.dram.avgQLat                 25000.88                       # Average queueing delay per DRAM burst
system.mem_ctrl.dram.avgBusLat                5000.00                       # Average bus latency per DRAM burst
system.mem_ctrl.dram.avgMemAccLat            43750.88                       # Average memory access latency per DRAM burst
system.mem_ctrl.dram.readRowHits                 5695                       # Number of row buffer hits during reads
system.mem_ctrl.dram.writeRowHits                  98                       # Number of row buffer hits during writes
system.mem_ctrl.dram.readRowHitRate              9.13                       # Row buffer hit rate for reads
system.mem_ctrl.dram.writeRowHitRate            87.50                       # Row buffer hit rate for writes
system.mem_ctrl.dram.bytesPerActivate::samples        56682                       # Bytes accessed per row activation
system.mem_ctrl.dram.bytesPerActivate::mean    70.513814                       # Bytes accessed per row activation
system.mem_ctrl.dram.bytesPerActivate::gmean    68.165532                       # Bytes accessed per row activation
system.mem_ctrl.dram.bytesPerActivate::stdev    29.134212                       # Bytes accessed per row activation
system.mem_ctrl.dram.bytesPerActivate::0-127        51982     91.71%     91.71% # Bytes accessed per row activation
system.mem_ctrl.dram.bytesPerActivate::128-255         4551      8.03%     99.74% # Bytes accessed per row activation
system.mem_ctrl.dram.bytesPerActivate::256-383           88      0.16%     99.89% # Bytes accessed per row activation
system.mem_ctrl.dram.bytesPerActivate::384-511           20      0.04%     99.93% # Bytes accessed per row activation
system.mem_ctrl.dram.bytesPerActivate::512-639           13      0.02%     99.95% # Bytes accessed per row activation
system.mem_ctrl.dram.bytesPerActivate::640-767           10      0.02%     99.97% # Bytes accessed per row activation
system.mem_ctrl.dram.bytesPerActivate::768-895            5      0.01%     99.98% # Bytes accessed per row activation
system.mem_ctrl.dram.bytesPerActivate::896-1023            2      0.00%     99.98% # Bytes accessed per row activation
system.mem_ctrl.dram.bytesPerActivate::1024-1151           11      0.02%    100.00% # Bytes accessed per row activation
system.mem_ctrl.dram.bytesPerActivate::total        56682                       # Bytes accessed per row activation
system.mem_ctrl.dram.bytesRead                3991360                       # Total number of bytes read from DRAM
system.mem_ctrl.dram.bytesWritten                7168                       # Total number of bytes written to DRAM
system.mem_ctrl.dram.avgRdBW               489.030399                       # Average DRAM read bandwidth in MiBytes/s
system.mem_ctrl.dram.avgWrBW                 0.878239                       # Average DRAM write bandwidth in MiBytes/s
system.mem_ctrl.dram.peakBW                  12800.00                       # Theoretical peak bandwidth in MiByte/s
system.mem_ctrl.dram.busUtil                     3.83                       # Data bus utilization in percentage
system.mem_ctrl.dram.busUtilRead                 3.82                       # Data bus utilization in percentage for reads
system.mem_ctrl.dram.busUtilWrite                0.01                       # Data bus utilization in percentage for writes
system.mem_ctrl.dram.pageHitRate                 9.27                       # Row buffer hit rate, read and write combined
system.mem_ctrl.dram.power_state.pwrStateResidencyTicks::UNDEFINED   8161783000                       # Cumulative time (in ticks) in various power states
system.mem_ctrl.dram.rank0.actEnergy        202768860                       # Energy for activate commands per rank (pJ)
system.mem_ctrl.dram.rank0.preEnergy        107774205                       # Energy for precharge commands per rank (pJ)
system.mem_ctrl.dram.rank0.readEnergy       223003620                       # Energy for read commands per rank (pJ)
system.mem_ctrl.dram.rank0.writeEnergy         422820                       # Energy for write commands per rank (pJ)
system.mem_ctrl.dram.rank0.refreshEnergy 644142720.000000                       # Energy for refresh commands per rank (pJ)
system.mem_ctrl.dram.rank0.actBackEnergy   3649147980                       # Energy for active background per rank (pJ)
system.mem_ctrl.dram.rank0.preBackEnergy     61158240                       # Energy for precharge background per rank (pJ)
system.mem_ctrl.dram.rank0.actPowerDownEnergy            0                       # Energy for active power-down per rank (pJ)
system.mem_ctrl.dram.rank0.prePowerDownEnergy            0                       # Energy for precharge power-down per rank (pJ)
system.mem_ctrl.dram.rank0.selfRefreshEnergy            0                       # Energy for self refresh per rank (pJ)
system.mem_ctrl.dram.rank0.totalEnergy     4888418445                       # Total energy per rank (pJ)
system.mem_ctrl.dram.rank0.averagePower    598.940017                       # Core power per rank (mW)
system.mem_ctrl.dram.rank0.totalIdleTime            0                       # Total Idle time Per DRAM Rank
system.mem_ctrl.dram.rank0.pwrStateTime::IDLE    127983250                       # Time in different power states
system.mem_ctrl.dram.rank0.pwrStateTime::REF    272480000                       # Time in different power states
system.mem_ctrl.dram.rank0.pwrStateTime::SREF            0                       # Time in different power states
system.mem_ctrl.dram.rank0.pwrStateTime::PRE_PDN            0                       # Time in different power states
system.mem_ctrl.dram.rank0.pwrStateTime::ACT   7761319750                       # Time in different power states
system.mem_ctrl.dram.rank0.pwrStateTime::ACT_PDN            0                       # Time in different power states
system.mem_ctrl.dram.rank1.actEnergy        201954900                       # Energy for activate commands per rank (pJ)
system.mem_ctrl.dram.rank1.preEnergy        107333985                       # Energy for precharge commands per rank (pJ)
system.mem_ctrl.dram.rank1.readEnergy       222282480                       # Energy for read commands per rank (pJ)
system.mem_ctrl.dram.rank1.writeEnergy         161820                       # Energy for write commands per rank (pJ)
system.mem_ctrl.dram.rank1.refreshEnergy 644142720.000000                       # Energy for refresh commands per rank (pJ)
system.mem_ctrl.dram.rank1.actBackEnergy   3652225410                       # Energy for active background per rank (pJ)
system.mem_ctrl.dram.rank1.preBackEnergy     58566720                       # Energy for precharge background per rank (pJ)
system.mem_ctrl.dram.rank1.actPowerDownEnergy            0                       # Energy for active power-down per rank (pJ)
system.mem_ctrl.dram.rank1.prePowerDownEnergy            0                       # Energy for precharge power-down per rank (pJ)
system.mem_ctrl.dram.rank1.selfRefreshEnergy            0                       # Energy for self refresh per rank (pJ)
system.mem_ctrl.dram.rank1.totalEnergy     4886668035                       # Total energy per rank (pJ)
system.mem_ctrl.dram.rank1.averagePower    598.725552                       # Core power per rank (mW)
system.mem_ctrl.dram.rank1.totalIdleTime            0                       # Total Idle time Per DRAM Rank
system.mem_ctrl.dram.rank1.pwrStateTime::IDLE    122319250                       # Time in different power states
system.mem_ctrl.dram.rank1.pwrStateTime::REF    272480000                       # Time in different power states
system.mem_ctrl.dram.rank1.pwrStateTime::SREF            0                       # Time in different power states
system.mem_ctrl.dram.rank1.pwrStateTime::PRE_PDN            0                       # Time in different power states
system.mem_ctrl.dram.rank1.pwrStateTime::ACT   7766983750                       # Time in different power states
system.mem_ctrl.dram.rank1.pwrStateTime::ACT_PDN            0                       # Time in different power states
system.mem_ctrl.power_state.pwrStateResidencyTicks::UNDEFINED   8161783000                       # Cumulative time (in ticks) in various power states
system.membus.trans_dist::ReadResp              62246                       # Transaction distribution
system.membus.trans_dist::WritebackDirty          143                       # Transaction distribution
system.membus.trans_dist::CleanEvict            60527                       # Transaction distribution
system.membus.trans_dist::UpgradeReq                1                       # Transaction distribution
system.membus.trans_dist::ReadExReq               121                       # Transaction distribution
system.membus.trans_dist::ReadExResp              121                       # Transaction distribution
system.membus.trans_dist::ReadSharedReq         62246                       # Transaction distribution
system.membus.pkt_count_system.l2cache.mem_side_port::system.mem_ctrl.port       185405                       # Packet count per connected requestor and responder (bytes)
system.membus.pkt_count_system.l2cache.mem_side_port::total       185405                       # Packet count per connected requestor and responder (bytes)
system.membus.pkt_count::total                 185405                       # Packet count per connected requestor and responder (bytes)
system.membus.pkt_size_system.l2cache.mem_side_port::system.mem_ctrl.port      4000640                       # Cumulative packet size per connected requestor and responder (bytes)
system.membus.pkt_size_system.l2cache.mem_side_port::total      4000640                       # Cumulative packet size per connected requestor and responder (bytes)
system.membus.pkt_size::total                 4000640                       # Cumulative packet size per connected requestor and responder (bytes)
system.membus.snoops                                0                       # Total snoops (count)
system.membus.snoopTraffic                          0                       # Total snoop traffic (bytes)
system.membus.snoop_fanout::samples             62368                       # Request fanout histogram
system.membus.snoop_fanout::mean                    0                       # Request fanout histogram
system.membus.snoop_fanout::stdev                   0                       # Request fanout histogram
system.membus.snoop_fanout::underflows              0      0.00%      0.00% # Request fanout histogram
system.membus.snoop_fanout::0                   62368    100.00%    100.00% # Request fanout histogram
system.membus.snoop_fanout::1                       0      0.00%    100.00% # Request fanout histogram
system.membus.snoop_fanout::overflows               0      0.00%    100.00% # Request fanout histogram
system.membus.snoop_fanout::min_value               0                       # Request fanout histogram
system.membus.snoop_fanout::max_value               0                       # Request fanout histogram
system.membus.snoop_fanout::total               62368                       # Request fanout histogram
system.membus.power_state.pwrStateResidencyTicks::UNDEFINED   8161783000                       # Cumulative time (in ticks) in various power states
system.membus.reqLayer2.occupancy           123610000                       # Layer occupancy (ticks)
system.membus.reqLayer2.utilization               1.5                       # Layer utilization (%)
system.membus.respLayer0.occupancy          351473250                       # Layer occupancy (ticks)
system.membus.respLayer0.utilization              4.3                       # Layer utilization (%)

---------- End Simulation Statistics   ----------
