
---------- Begin Simulation Statistics ----------
final_tick                               794499461000                       # Number of ticks from beginning of simulation (restored from checkpoints and never reset)
host_inst_rate                                 420126                       # Simulator instruction rate (inst/s)
host_mem_usage                                 674448                       # Number of bytes of host memory used
host_op_rate                                   676857                       # Simulator op (including micro ops) rate (op/s)
host_seconds                                   386.75                       # Real time elapsed on the host
host_tick_rate                             2054313849                       # Simulator tick rate (ticks/s)
sim_freq                                 1000000000000                       # Frequency of simulated ticks
sim_insts                                   162482124                       # Number of instructions simulated
sim_ops                                     261772116                       # Number of ops (including micro ops) simulated
sim_seconds                                  0.794499                       # Number of seconds simulated
sim_ticks                                794499461000                       # Number of ticks simulated
system.cpu.Branches                           1513281                       # Number of branches fetched
system.cpu.committedInsts                   162482124                       # Number of instructions committed
system.cpu.committedOps                     261772116                       # Number of ops (including micro ops) committed
system.cpu.idle_fraction                     0.000000                       # Percentage of idle cycles
system.cpu.not_idle_fraction                 1.000000                       # Percentage of non-idle cycles
system.cpu.numCycles                        794499461                       # number of cpu cycles simulated
system.cpu.numWorkItemsCompleted                    0                       # number of work items this cpu completed
system.cpu.numWorkItemsStarted                      0                       # number of work items this cpu started
system.cpu.num_busy_cycles               794499460.999000                       # Number of busy cycles
system.cpu.num_cc_register_reads              7365424                       # number of times the CC registers were read
system.cpu.num_cc_register_writes            11742808                       # number of times the CC registers were written
system.cpu.num_conditional_control_insts      1421663                       # number of instructions that are conditional controls
system.cpu.num_fp_alu_accesses              228031846                       # Number of float alu accesses
system.cpu.num_fp_insts                     228031846                       # number of float instructions
system.cpu.num_fp_register_reads            368336050                       # number of times the floating registers were read
system.cpu.num_fp_register_writes           210807642                       # number of times the floating registers were written
system.cpu.num_func_calls                       53430                       # number of times a function call or return occured
system.cpu.num_idle_cycles                   0.001000                       # Number of idle cycles
system.cpu.num_int_alu_accesses             103312597                       # Number of integer alu accesses
system.cpu.num_int_insts                    103312597                       # number of integer instructions
system.cpu.num_int_register_reads           260490982                       # number of times the integer registers were read
system.cpu.num_int_register_writes           28267146                       # number of times the integer registers were written
system.cpu.num_load_insts                    54401385                       # Number of load instructions
system.cpu.num_mem_refs                      75494996                       # number of memory refs
system.cpu.num_store_insts                   21093611                       # Number of store instructions
system.cpu.num_vec_alu_accesses                     0                       # Number of vector alu accesses
system.cpu.num_vec_insts                            0                       # number of vector instructions
system.cpu.num_vec_register_reads                   0                       # number of times the vector registers were read
system.cpu.num_vec_register_writes                  0                       # number of times the vector registers were written
system.cpu.op_class::No_OpClass                114297      0.04%      0.04% # Class of executed instruction
system.cpu.op_class::IntAlu                  64498460     24.64%     24.68% # Class of executed instruction
system.cpu.op_class::IntMult                    19665      0.01%     24.69% # Class of executed instruction
system.cpu.op_class::IntDiv                      1316      0.00%     24.69% # Class of executed instruction
system.cpu.op_class::FloatAdd                26235189     10.02%     34.71% # Class of executed instruction
system.cpu.op_class::FloatCmp                       0      0.00%     34.71% # Class of executed instruction
system.cpu.op_class::FloatCvt                       0      0.00%     34.71% # Class of executed instruction
system.cpu.op_class::FloatMult                      0      0.00%     34.71% # Class of executed instruction
system.cpu.op_class::FloatMultAcc                   0      0.00%     34.71% # Class of executed instruction
system.cpu.op_class::FloatDiv                       0      0.00%     34.71% # Class of executed instruction
system.cpu.op_class::FloatMisc                      0      0.00%     34.71% # Class of executed instruction
system.cpu.op_class::FloatSqrt                      0      0.00%     34.71% # Class of executed instruction
system.cpu.op_class::SimdAdd                     8730      0.00%     34.72% # Class of executed instruction
system.cpu.op_class::SimdAddAcc                     0      0.00%     34.72% # Class of executed instruction
system.cpu.op_class::SimdAlu                  8054809      3.08%     37.79% # Class of executed instruction
system.cpu.op_class::SimdCmp                       18      0.00%     37.79% # Class of executed instruction
system.cpu.op_class::SimdCvt                     1500      0.00%     37.79% # Class of executed instruction
system.cpu.op_class::SimdMisc                  476679      0.18%     37.98% # Class of executed instruction
system.cpu.op_class::SimdMult                       0      0.00%     37.98% # Class of executed instruction
system.cpu.op_class::SimdMultAcc                    0      0.00%     37.98% # Class of executed instruction
system.cpu.op_class::SimdShift                      9      0.00%     37.98% # Class of executed instruction
system.cpu.op_class::SimdShiftAcc                   0      0.00%     37.98% # Class of executed instruction
system.cpu.op_class::SimdDiv                        0      0.00%     37.98% # Class of executed instruction
system.cpu.op_class::SimdSqrt                       0      0.00%     37.98% # Class of executed instruction
system.cpu.op_class::SimdFloatAdd            34232648     13.08%     51.05% # Class of executed instruction
system.cpu.op_class::SimdFloatAlu                   0      0.00%     51.05% # Class of executed instruction
system.cpu.op_class::SimdFloatCmp                   0      0.00%     51.05% # Class of executed instruction
system.cpu.op_class::SimdFloatCvt              101836      0.04%     51.09% # Class of executed instruction
system.cpu.op_class::SimdFloatDiv             1077659      0.41%     51.50% # Class of executed instruction
system.cpu.op_class::SimdFloatMisc                  0      0.00%     51.50% # Class of executed instruction
system.cpu.op_class::SimdFloatMult           51454394     19.66%     71.16% # Class of executed instruction
system.cpu.op_class::SimdFloatMultAcc               0      0.00%     71.16% # Class of executed instruction
system.cpu.op_class::SimdFloatSqrt                 25      0.00%     71.16% # Class of executed instruction
system.cpu.op_class::SimdReduceAdd                  0      0.00%     71.16% # Class of executed instruction
system.cpu.op_class::SimdReduceAlu                  0      0.00%     71.16% # Class of executed instruction
system.cpu.op_class::SimdReduceCmp                  0      0.00%     71.16% # Class of executed instruction
system.cpu.op_class::SimdFloatReduceAdd             0      0.00%     71.16% # Class of executed instruction
system.cpu.op_class::SimdFloatReduceCmp             0      0.00%     71.16% # Class of executed instruction
system.cpu.op_class::SimdAes                        0      0.00%     71.16% # Class of executed instruction
system.cpu.op_class::SimdAesMix                     0      0.00%     71.16% # Class of executed instruction
system.cpu.op_class::SimdSha1Hash                   0      0.00%     71.16% # Class of executed instruction
system.cpu.op_class::SimdSha1Hash2                  0      0.00%     71.16% # Class of executed instruction
system.cpu.op_class::SimdSha256Hash                 0      0.00%     71.16% # Class of executed instruction
system.cpu.op_class::SimdSha256Hash2                0      0.00%     71.16% # Class of executed instruction
system.cpu.op_class::SimdShaSigma2                  0      0.00%     71.16% # Class of executed instruction
system.cpu.op_class::SimdShaSigma3                  0      0.00%     71.16% # Class of executed instruction
system.cpu.op_class::SimdPredAlu                    0      0.00%     71.16% # Class of executed instruction
system.cpu.op_class::MemRead                  2072680      0.79%     71.95% # Class of executed instruction
system.cpu.op_class::MemWrite                 3871051      1.48%     73.43% # Class of executed instruction
system.cpu.op_class::FloatMemRead            52328705     19.99%     93.42% # Class of executed instruction
system.cpu.op_class::FloatMemWrite           17222560      6.58%    100.00% # Class of executed instruction
system.cpu.op_class::IprAccess                      0      0.00%    100.00% # Class of executed instruction
system.cpu.op_class::InstPrefetch                   0      0.00%    100.00% # Class of executed instruction
system.cpu.op_class::total                  261772230                       # Class of executed instruction
system.cpu.workload.numSyscalls                    89                       # Number of system calls
system.l2bus.snoop_filter.hit_multi_requests            0                       # Number of requests hitting in the snoop filter with multiple (>1) holders of the requested data.
system.l2bus.snoop_filter.hit_multi_snoops            0                       # Number of snoops hitting in the snoop filter with multiple (>1) holders of the requested data.
system.l2bus.snoop_filter.hit_single_requests      3054377                       # Number of requests hitting in the snoop filter with a single holder of the requested data.
system.l2bus.snoop_filter.hit_single_snoops       374810                       # Number of snoops hitting in the snoop filter with a single holder of the requested data.
system.l2bus.snoop_filter.tot_requests        6110034                       # Total number of requests made to the snoop filter.
system.l2bus.snoop_filter.tot_snoops           374810                       # Total number of snoops made to the snoop filter.
system.membus.snoop_filter.hit_multi_requests            0                       # Number of requests hitting in the snoop filter with multiple (>1) holders of the requested data.
system.membus.snoop_filter.hit_multi_snoops            0                       # Number of snoops hitting in the snoop filter with multiple (>1) holders of the requested data.
system.membus.snoop_filter.hit_single_requests       792194                       # Number of requests hitting in the snoop filter with a single holder of the requested data.
system.membus.snoop_filter.hit_single_snoops            0                       # Number of snoops hitting in the snoop filter with a single holder of the requested data.
system.membus.snoop_filter.tot_requests       1586758                       # Total number of requests made to the snoop filter.
system.membus.snoop_filter.tot_snoops               0                       # Total number of snoops made to the snoop filter.
system.clk_domain.clock                          1000                       # Clock period in ticks
system.clk_domain.voltage_domain.voltage            1                       # Voltage in Volts
system.cpu.dcache.demand_hits::.cpu.data     72495181                       # number of demand (read+write) hits
system.cpu.dcache.demand_hits::total         72495181                       # number of demand (read+write) hits
system.cpu.dcache.overall_hits::.cpu.data     72495181                       # number of overall hits
system.cpu.dcache.overall_hits::total        72495181                       # number of overall hits
system.cpu.dcache.demand_misses::.cpu.data      2999950                       # number of demand (read+write) misses
system.cpu.dcache.demand_misses::total        2999950                       # number of demand (read+write) misses
system.cpu.dcache.overall_misses::.cpu.data      2999950                       # number of overall misses
system.cpu.dcache.overall_misses::total       2999950                       # number of overall misses
system.cpu.dcache.demand_miss_latency::.cpu.data 136485159000                       # number of demand (read+write) miss cycles
system.cpu.dcache.demand_miss_latency::total 136485159000                       # number of demand (read+write) miss cycles
system.cpu.dcache.overall_miss_latency::.cpu.data 136485159000                       # number of overall miss cycles
system.cpu.dcache.overall_miss_latency::total 136485159000                       # number of overall miss cycles
system.cpu.dcache.demand_accesses::.cpu.data     75495131                       # number of demand (read+write) accesses
system.cpu.dcache.demand_accesses::total     75495131                       # number of demand (read+write) accesses
system.cpu.dcache.overall_accesses::.cpu.data     75495131                       # number of overall (read+write) accesses
system.cpu.dcache.overall_accesses::total     75495131                       # number of overall (read+write) accesses
system.cpu.dcache.demand_miss_rate::.cpu.data     0.039737                       # miss rate for demand accesses
system.cpu.dcache.demand_miss_rate::total     0.039737                       # miss rate for demand accesses
system.cpu.dcache.overall_miss_rate::.cpu.data     0.039737                       # miss rate for overall accesses
system.cpu.dcache.overall_miss_rate::total     0.039737                       # miss rate for overall accesses
system.cpu.dcache.demand_avg_miss_latency::.cpu.data 45495.811264                       # average overall miss latency
system.cpu.dcache.demand_avg_miss_latency::total 45495.811264                       # average overall miss latency
system.cpu.dcache.overall_avg_miss_latency::.cpu.data 45495.811264                       # average overall miss latency
system.cpu.dcache.overall_avg_miss_latency::total 45495.811264                       # average overall miss latency
system.cpu.dcache.blocked_cycles::no_mshrs            0                       # number of cycles access was blocked
system.cpu.dcache.blocked_cycles::no_targets            0                       # number of cycles access was blocked
system.cpu.dcache.blocked::no_mshrs                 0                       # number of cycles access was blocked
system.cpu.dcache.blocked::no_targets               0                       # number of cycles access was blocked
system.cpu.dcache.avg_blocked_cycles::no_mshrs          nan                       # average number of cycles each access was blocked
system.cpu.dcache.avg_blocked_cycles::no_targets          nan                       # average number of cycles each access was blocked
system.cpu.dcache.writebacks::.writebacks      2418790                       # number of writebacks
system.cpu.dcache.writebacks::total           2418790                       # number of writebacks
system.cpu.dcache.demand_mshr_misses::.cpu.data      2999950                       # number of demand (read+write) MSHR misses
system.cpu.dcache.demand_mshr_misses::total      2999950                       # number of demand (read+write) MSHR misses
system.cpu.dcache.overall_mshr_misses::.cpu.data      2999950                       # number of overall MSHR misses
system.cpu.dcache.overall_mshr_misses::total      2999950                       # number of overall MSHR misses
system.cpu.dcache.demand_mshr_miss_latency::.cpu.data 130485259000                       # number of demand (read+write) MSHR miss cycles
system.cpu.dcache.demand_mshr_miss_latency::total 130485259000                       # number of demand (read+write) MSHR miss cycles
system.cpu.dcache.overall_mshr_miss_latency::.cpu.data 130485259000                       # number of overall MSHR miss cycles
system.cpu.dcache.overall_mshr_miss_latency::total 130485259000                       # number of overall MSHR miss cycles
system.cpu.dcache.demand_mshr_miss_rate::.cpu.data     0.039737                       # mshr miss rate for demand accesses
system.cpu.dcache.demand_mshr_miss_rate::total     0.039737                       # mshr miss rate for demand accesses
system.cpu.dcache.overall_mshr_miss_rate::.cpu.data     0.039737                       # mshr miss rate for overall accesses
system.cpu.dcache.overall_mshr_miss_rate::total     0.039737                       # mshr miss rate for overall accesses
system.cpu.dcache.demand_avg_mshr_miss_latency::.cpu.data 43495.811264                       # average overall mshr miss latency
system.cpu.dcache.demand_avg_mshr_miss_latency::total 43495.811264                       # average overall mshr miss latency
system.cpu.dcache.overall_avg_mshr_miss_latency::.cpu.data 43495.811264                       # average overall mshr miss latency
system.cpu.dcache.overall_avg_mshr_miss_latency::total 43495.811264                       # average overall mshr miss latency
system.cpu.dcache.replacements                2998926                       # number of replacements
system.cpu.dcache.ReadReq_hits::.cpu.data     52517217                       # number of ReadReq hits
system.cpu.dcache.ReadReq_hits::total        52517217                       # number of ReadReq hits
system.cpu.dcache.ReadReq_misses::.cpu.data      1884286                       # number of ReadReq misses
system.cpu.dcache.ReadReq_misses::total       1884286                       # number of ReadReq misses
system.cpu.dcache.ReadReq_miss_latency::.cpu.data  93475575000                       # number of ReadReq miss cycles
system.cpu.dcache.ReadReq_miss_latency::total  93475575000                       # number of ReadReq miss cycles
system.cpu.dcache.ReadReq_accesses::.cpu.data     54401503                       # number of ReadReq accesses(hits+misses)
system.cpu.dcache.ReadReq_accesses::total     54401503                       # number of ReadReq accesses(hits+misses)
system.cpu.dcache.ReadReq_miss_rate::.cpu.data     0.034637                       # miss rate for ReadReq accesses
system.cpu.dcache.ReadReq_miss_rate::total     0.034637                       # miss rate for ReadReq accesses
system.cpu.dcache.ReadReq_avg_miss_latency::.cpu.data 49607.954950                       # average ReadReq miss latency
system.cpu.dcache.ReadReq_avg_miss_latency::total 49607.954950                       # average ReadReq miss latency
system.cpu.dcache.ReadReq_mshr_misses::.cpu.data      1884286                       # number of ReadReq MSHR misses
system.cpu.dcache.ReadReq_mshr_misses::total      1884286                       # number of ReadReq MSHR misses
system.cpu.dcache.ReadReq_mshr_miss_latency::.cpu.data  89707003000                       # number of ReadReq MSHR miss cycles
system.cpu.dcache.ReadReq_mshr_miss_latency::total  89707003000                       # number of ReadReq MSHR miss cycles
system.cpu.dcache.ReadReq_mshr_miss_rate::.cpu.data     0.034637                       # mshr miss rate for ReadReq accesses
system.cpu.dcache.ReadReq_mshr_miss_rate::total     0.034637                       # mshr miss rate for ReadReq accesses
system.cpu.dcache.ReadReq_avg_mshr_miss_latency::.cpu.data 47607.954950                       # average ReadReq mshr miss latency
system.cpu.dcache.ReadReq_avg_mshr_miss_latency::total 47607.954950                       # average ReadReq mshr miss latency
system.cpu.dcache.WriteReq_hits::.cpu.data     19977964                       # number of WriteReq hits
system.cpu.dcache.WriteReq_hits::total       19977964                       # number of WriteReq hits
system.cpu.dcache.WriteReq_misses::.cpu.data      1115664                       # number of WriteReq misses
system.cpu.dcache.WriteReq_misses::total      1115664                       # number of WriteReq misses
system.cpu.dcache.WriteReq_miss_latency::.cpu.data  43009584000                       # number of WriteReq miss cycles
system.cpu.dcache.WriteReq_miss_latency::total  43009584000                       # number of WriteReq miss cycles
system.cpu.dcache.WriteReq_accesses::.cpu.data     21093628                       # number of WriteReq accesses(hits+misses)
system.cpu.dcache.WriteReq_accesses::total     21093628                       # number of WriteReq accesses(hits+misses)
system.cpu.dcache.WriteReq_miss_rate::.cpu.data     0.052891                       # miss rate for WriteReq accesses
system.cpu.dcache.WriteReq_miss_rate::total     0.052891                       # miss rate for WriteReq accesses
system.cpu.dcache.WriteReq_avg_miss_latency::.cpu.data 38550.660414                       # average WriteReq miss latency
system.cpu.dcache.WriteReq_avg_miss_latency::total 38550.660414                       # average WriteReq miss latency
system.cpu.dcache.WriteReq_mshr_misses::.cpu.data      1115664                       # number of WriteReq MSHR misses
system.cpu.dcache.WriteReq_mshr_misses::total      1115664                       # number of WriteReq MSHR misses
system.cpu.dcache.WriteReq_mshr_miss_latency::.cpu.data  40778256000                       # number of WriteReq MSHR miss cycles
system.cpu.dcache.WriteReq_mshr_miss_latency::total  40778256000                       # number of WriteReq MSHR miss cycles
system.cpu.dcache.WriteReq_mshr_miss_rate::.cpu.data     0.052891                       # mshr miss rate for WriteReq accesses
system.cpu.dcache.WriteReq_mshr_miss_rate::total     0.052891                       # mshr miss rate for WriteReq accesses
system.cpu.dcache.WriteReq_avg_mshr_miss_latency::.cpu.data 36550.660414                       # average WriteReq mshr miss latency
system.cpu.dcache.WriteReq_avg_mshr_miss_latency::total 36550.660414                       # average WriteReq mshr miss latency
system.cpu.dcache.power_state.pwrStateResidencyTicks::UNDEFINED 794499461000                       # Cumulative time (in ticks) in various power states
system.cpu.dcache.tags.tagsinuse          1023.454566                       # Cycle average of tags in use
system.cpu.dcache.tags.total_refs            75495131                       # Total number of references to valid blocks.
system.cpu.dcache.tags.sampled_refs           2999950                       # Sample count of references to valid blocks.
system.cpu.dcache.tags.avg_refs             25.165463                       # Average number of references to valid blocks.
system.cpu.dcache.tags.warmup_cycle            224000                       # Cycle when the warmup percentage was hit.
system.cpu.dcache.tags.occ_blocks::.cpu.data  1023.454566                       # Average occupied blocks per requestor
system.cpu.dcache.tags.occ_percent::.cpu.data     0.999467                       # Average percentage of cache occupancy
system.cpu.dcache.tags.occ_percent::total     0.999467                       # Average percentage of cache occupancy
system.cpu.dcache.tags.occ_task_id_blocks::1024         1024                       # Occupied blocks per task id
system.cpu.dcache.tags.age_task_id_blocks_1024::0           26                       # Occupied blocks per task id
system.cpu.dcache.tags.age_task_id_blocks_1024::1          113                       # Occupied blocks per task id
system.cpu.dcache.tags.age_task_id_blocks_1024::2          470                       # Occupied blocks per task id
system.cpu.dcache.tags.age_task_id_blocks_1024::3          415                       # Occupied blocks per task id
system.cpu.dcache.tags.occ_task_id_percent::1024            1                       # Percentage of cache occupancy per task id
system.cpu.dcache.tags.tag_accesses         153990212                       # Number of tag accesses
system.cpu.dcache.tags.data_accesses        153990212                       # Number of data accesses
system.cpu.dcache.tags.power_state.pwrStateResidencyTicks::UNDEFINED 794499461000                       # Cumulative time (in ticks) in various power states
system.cpu.dtb.rdAccesses                    54401504                       # TLB accesses on read requests
system.cpu.dtb.wrAccesses                    21093652                       # TLB accesses on write requests
system.cpu.dtb.rdMisses                          5333                       # TLB misses on read requests
system.cpu.dtb.wrMisses                          2475                       # TLB misses on write requests
system.cpu.dtb.walker.power_state.pwrStateResidencyTicks::UNDEFINED 794499461000                       # Cumulative time (in ticks) in various power states
system.cpu.icache.demand_hits::.cpu.inst    254337952                       # number of demand (read+write) hits
system.cpu.icache.demand_hits::total        254337952                       # number of demand (read+write) hits
system.cpu.icache.overall_hits::.cpu.inst    254337952                       # number of overall hits
system.cpu.icache.overall_hits::total       254337952                       # number of overall hits
system.cpu.icache.demand_misses::.cpu.inst        55707                       # number of demand (read+write) misses
system.cpu.icache.demand_misses::total          55707                       # number of demand (read+write) misses
system.cpu.icache.overall_misses::.cpu.inst        55707                       # number of overall misses
system.cpu.icache.overall_misses::total         55707                       # number of overall misses
system.cpu.icache.demand_miss_latency::.cpu.inst   4348391000                       # number of demand (read+write) miss cycles
system.cpu.icache.demand_miss_latency::total   4348391000                       # number of demand (read+write) miss cycles
system.cpu.icache.overall_miss_latency::.cpu.inst   4348391000                       # number of overall miss cycles
system.cpu.icache.overall_miss_latency::total   4348391000                       # number of overall miss cycles
system.cpu.icache.demand_accesses::.cpu.inst    254393659                       # number of demand (read+write) accesses
system.cpu.icache.demand_accesses::total    254393659                       # number of demand (read+write) accesses
system.cpu.icache.overall_accesses::.cpu.inst    254393659                       # number of overall (read+write) accesses
system.cpu.icache.overall_accesses::total    254393659                       # number of overall (read+write) accesses
system.cpu.icache.demand_miss_rate::.cpu.inst     0.000219                       # miss rate for demand accesses
system.cpu.icache.demand_miss_rate::total     0.000219                       # miss rate for demand accesses
system.cpu.icache.overall_miss_rate::.cpu.inst     0.000219                       # miss rate for overall accesses
system.cpu.icache.overall_miss_rate::total     0.000219                       # miss rate for overall accesses
system.cpu.icache.demand_avg_miss_latency::.cpu.inst 78058.251207                       # average overall miss latency
system.cpu.icache.demand_avg_miss_latency::total 78058.251207                       # average overall miss latency
system.cpu.icache.overall_avg_miss_latency::.cpu.inst 78058.251207                       # average overall miss latency
system.cpu.icache.overall_avg_miss_latency::total 78058.251207                       # average overall miss latency
system.cpu.icache.blocked_cycles::no_mshrs            0                       # number of cycles access was blocked
system.cpu.icache.blocked_cycles::no_targets            0                       # number of cycles access was blocked
system.cpu.icache.blocked::no_mshrs                 0                       # number of cycles access was blocked
system.cpu.icache.blocked::no_targets               0                       # number of cycles access was blocked
system.cpu.icache.avg_blocked_cycles::no_mshrs          nan                       # average number of cycles each access was blocked
system.cpu.icache.avg_blocked_cycles::no_targets          nan                       # average number of cycles each access was blocked
system.cpu.icache.demand_mshr_misses::.cpu.inst        55707                       # number of demand (read+write) MSHR misses
system.cpu.icache.demand_mshr_misses::total        55707                       # number of demand (read+write) MSHR misses
system.cpu.icache.overall_mshr_misses::.cpu.inst        55707                       # number of overall MSHR misses
system.cpu.icache.overall_mshr_misses::total        55707                       # number of overall MSHR misses
system.cpu.icache.demand_mshr_miss_latency::.cpu.inst   4236977000                       # number of demand (read+write) MSHR miss cycles
system.cpu.icache.demand_mshr_miss_latency::total   4236977000                       # number of demand (read+write) MSHR miss cycles
system.cpu.icache.overall_mshr_miss_latency::.cpu.inst   4236977000                       # number of overall MSHR miss cycles
system.cpu.icache.overall_mshr_miss_latency::total   4236977000                       # number of overall MSHR miss cycles
system.cpu.icache.demand_mshr_miss_rate::.cpu.inst     0.000219                       # mshr miss rate for demand accesses
system.cpu.icache.demand_mshr_miss_rate::total     0.000219                       # mshr miss rate for demand accesses
system.cpu.icache.overall_mshr_miss_rate::.cpu.inst     0.000219                       # mshr miss rate for overall accesses
system.cpu.icache.overall_mshr_miss_rate::total     0.000219                       # mshr miss rate for overall accesses
system.cpu.icache.demand_avg_mshr_miss_latency::.cpu.inst 76058.251207                       # average overall mshr miss latency
system.cpu.icache.demand_avg_mshr_miss_latency::total 76058.251207                       # average overall mshr miss latency
system.cpu.icache.overall_avg_mshr_miss_latency::.cpu.inst 76058.251207                       # average overall mshr miss latency
system.cpu.icache.overall_avg_mshr_miss_latency::total 76058.251207                       # average overall mshr miss latency
system.cpu.icache.replacements                  55451                       # number of replacements
system.cpu.icache.ReadReq_hits::.cpu.inst    254337952                       # number of ReadReq hits
system.cpu.icache.ReadReq_hits::total       254337952                       # number of ReadReq hits
system.cpu.icache.ReadReq_misses::.cpu.inst        55707                       # number of ReadReq misses
system.cpu.icache.ReadReq_misses::total         55707                       # number of ReadReq misses
system.cpu.icache.ReadReq_miss_latency::.cpu.inst   4348391000                       # number of ReadReq miss cycles
system.cpu.icache.ReadReq_miss_latency::total   4348391000                       # number of ReadReq miss cycles
system.cpu.icache.ReadReq_accesses::.cpu.inst    254393659                       # number of ReadReq accesses(hits+misses)
system.cpu.icache.ReadReq_accesses::total    254393659                       # number of ReadReq accesses(hits+misses)
system.cpu.icache.ReadReq_miss_rate::.cpu.inst     0.000219                       # miss rate for ReadReq accesses
system.cpu.icache.ReadReq_miss_rate::total     0.000219                       # miss rate for ReadReq accesses
system.cpu.icache.ReadReq_avg_miss_latency::.cpu.inst 78058.251207                       # average ReadReq miss latency
system.cpu.icache.ReadReq_avg_miss_latency::total 78058.251207                       # average ReadReq miss latency
system.cpu.icache.ReadReq_mshr_misses::.cpu.inst        55707                       # number of ReadReq MSHR misses
system.cpu.icache.ReadReq_mshr_misses::total        55707                       # number of ReadReq MSHR misses
system.cpu.icache.ReadReq_mshr_miss_latency::.cpu.inst   4236977000                       # number of ReadReq MSHR miss cycles
system.cpu.icache.ReadReq_mshr_miss_latency::total   4236977000                       # number of ReadReq MSHR miss cycles
system.cpu.icache.ReadReq_mshr_miss_rate::.cpu.inst     0.000219                       # mshr miss rate for ReadReq accesses
system.cpu.icache.ReadReq_mshr_miss_rate::total     0.000219                       # mshr miss rate for ReadReq accesses
system.cpu.icache.ReadReq_avg_mshr_miss_latency::.cpu.inst 76058.251207                       # average ReadReq mshr miss latency
system.cpu.icache.ReadReq_avg_mshr_miss_latency::total 76058.251207                       # average ReadReq mshr miss latency
system.cpu.icache.power_state.pwrStateResidencyTicks::UNDEFINED 794499461000                       # Cumulative time (in ticks) in various power states
system.cpu.icache.tags.tagsinuse           255.983917                       # Cycle average of tags in use
system.cpu.icache.tags.total_refs           254393659                       # Total number of references to valid blocks.
system.cpu.icache.tags.sampled_refs             55707                       # Sample count of references to valid blocks.
system.cpu.icache.tags.avg_refs           4566.637209                       # Average number of references to valid blocks.
system.cpu.icache.tags.warmup_cycle            107000                       # Cycle when the warmup percentage was hit.
system.cpu.icache.tags.occ_blocks::.cpu.inst   255.983917                       # Average occupied blocks per requestor
system.cpu.icache.tags.occ_percent::.cpu.inst     0.999937                       # Average percentage of cache occupancy
system.cpu.icache.tags.occ_percent::total     0.999937                       # Average percentage of cache occupancy
system.cpu.icache.tags.occ_task_id_blocks::1024          256                       # Occupied blocks per task id
system.cpu.icache.tags.age_task_id_blocks_1024::0           32                       # Occupied blocks per task id
system.cpu.icache.tags.age_task_id_blocks_1024::1          107                       # Occupied blocks per task id
system.cpu.icache.tags.age_task_id_blocks_1024::2          108                       # Occupied blocks per task id
system.cpu.icache.tags.age_task_id_blocks_1024::3            9                       # Occupied blocks per task id
system.cpu.icache.tags.occ_task_id_percent::1024            1                       # Percentage of cache occupancy per task id
system.cpu.icache.tags.tag_accesses         508843025                       # Number of tag accesses
system.cpu.icache.tags.data_accesses        508843025                       # Number of data accesses
system.cpu.icache.tags.power_state.pwrStateResidencyTicks::UNDEFINED 794499461000                       # Cumulative time (in ticks) in various power states
system.cpu.interrupts.clk_domain.clock          16000                       # Clock period in ticks
system.cpu.itb.rdAccesses                           0                       # TLB accesses on read requests
system.cpu.itb.wrAccesses                   254393659                       # TLB accesses on write requests
system.cpu.itb.rdMisses                             0                       # TLB misses on read requests
system.cpu.itb.wrMisses                           138                       # TLB misses on write requests
system.cpu.itb.walker.power_state.pwrStateResidencyTicks::UNDEFINED 794499461000                       # Cumulative time (in ticks) in various power states
system.cpu.power_state.pwrStateResidencyTicks::ON 794499461000                       # Cumulative time (in ticks) in various power states
system.cpu.thread_0.numInsts                        0                       # Number of Instructions committed
system.cpu.thread_0.numOps                          0                       # Number of Ops committed
system.cpu.thread_0.numMemRefs                      0                       # Number of Memory References
system.l2bus.trans_dist::ReadResp             1939993                       # Transaction distribution
system.l2bus.trans_dist::WritebackDirty       2771039                       # Transaction distribution
system.l2bus.trans_dist::CleanEvict           1291587                       # Transaction distribution
system.l2bus.trans_dist::ReadExReq            1115664                       # Transaction distribution
system.l2bus.trans_dist::ReadExResp           1115664                       # Transaction distribution
system.l2bus.trans_dist::ReadSharedReq        1939993                       # Transaction distribution
system.l2bus.pkt_count_system.cpu.icache.mem_side_port::system.l2cache.cpu_side_port       166865                       # Packet count per connected requestor and responder (bytes)
system.l2bus.pkt_count_system.cpu.dcache.mem_side_port::system.l2cache.cpu_side_port      8998826                       # Packet count per connected requestor and responder (bytes)
system.l2bus.pkt_count::total                 9165691                       # Packet count per connected requestor and responder (bytes)
system.l2bus.pkt_size_system.cpu.icache.mem_side_port::system.l2cache.cpu_side_port      3565248                       # Cumulative packet size per connected requestor and responder (bytes)
system.l2bus.pkt_size_system.cpu.dcache.mem_side_port::system.l2cache.cpu_side_port    346799360                       # Cumulative packet size per connected requestor and responder (bytes)
system.l2bus.pkt_size::total                350364608                       # Cumulative packet size per connected requestor and responder (bytes)
system.l2bus.snoops                           1008249                       # Total snoops (count)
system.l2bus.snoopTraffic                    22543936                       # Total snoop traffic (bytes)
system.l2bus.snoop_fanout::samples            4063906                       # Request fanout histogram
system.l2bus.snoop_fanout::mean              0.092229                       # Request fanout histogram
system.l2bus.snoop_fanout::stdev             0.289349                       # Request fanout histogram
system.l2bus.snoop_fanout::underflows               0      0.00%      0.00% # Request fanout histogram
system.l2bus.snoop_fanout::0                  3689096     90.78%     90.78% # Request fanout histogram
system.l2bus.snoop_fanout::1                   374810      9.22%    100.00% # Request fanout histogram
system.l2bus.snoop_fanout::2                        0      0.00%    100.00% # Request fanout histogram
system.l2bus.snoop_fanout::overflows                0      0.00%    100.00% # Request fanout histogram
system.l2bus.snoop_fanout::min_value                0                       # Request fanout histogram
system.l2bus.snoop_fanout::max_value                1                       # Request fanout histogram
system.l2bus.snoop_fanout::total              4063906                       # Request fanout histogram
system.l2bus.power_state.pwrStateResidencyTicks::UNDEFINED 794499461000                       # Cumulative time (in ticks) in various power states
system.l2bus.reqLayer0.occupancy          10947614000                       # Layer occupancy (ticks)
system.l2bus.reqLayer0.utilization                1.4                       # Layer utilization (%)
system.l2bus.respLayer0.occupancy           167121000                       # Layer occupancy (ticks)
system.l2bus.respLayer0.utilization               0.0                       # Layer utilization (%)
system.l2bus.respLayer1.occupancy          8999850000                       # Layer occupancy (ticks)
system.l2bus.respLayer1.utilization               1.1                       # Layer utilization (%)
system.l2cache.demand_hits::.cpu.inst           17137                       # number of demand (read+write) hits
system.l2cache.demand_hits::.cpu.data         2243956                       # number of demand (read+write) hits
system.l2cache.demand_hits::total             2261093                       # number of demand (read+write) hits
system.l2cache.overall_hits::.cpu.inst          17137                       # number of overall hits
system.l2cache.overall_hits::.cpu.data        2243956                       # number of overall hits
system.l2cache.overall_hits::total            2261093                       # number of overall hits
system.l2cache.demand_misses::.cpu.inst         38570                       # number of demand (read+write) misses
system.l2cache.demand_misses::.cpu.data        755994                       # number of demand (read+write) misses
system.l2cache.demand_misses::total            794564                       # number of demand (read+write) misses
system.l2cache.overall_misses::.cpu.inst        38570                       # number of overall misses
system.l2cache.overall_misses::.cpu.data       755994                       # number of overall misses
system.l2cache.overall_misses::total           794564                       # number of overall misses
system.l2cache.demand_miss_latency::.cpu.inst   3709809000                       # number of demand (read+write) miss cycles
system.l2cache.demand_miss_latency::.cpu.data  74344905000                       # number of demand (read+write) miss cycles
system.l2cache.demand_miss_latency::total  78054714000                       # number of demand (read+write) miss cycles
system.l2cache.overall_miss_latency::.cpu.inst   3709809000                       # number of overall miss cycles
system.l2cache.overall_miss_latency::.cpu.data  74344905000                       # number of overall miss cycles
system.l2cache.overall_miss_latency::total  78054714000                       # number of overall miss cycles
system.l2cache.demand_accesses::.cpu.inst        55707                       # number of demand (read+write) accesses
system.l2cache.demand_accesses::.cpu.data      2999950                       # number of demand (read+write) accesses
system.l2cache.demand_accesses::total         3055657                       # number of demand (read+write) accesses
system.l2cache.overall_accesses::.cpu.inst        55707                       # number of overall (read+write) accesses
system.l2cache.overall_accesses::.cpu.data      2999950                       # number of overall (read+write) accesses
system.l2cache.overall_accesses::total        3055657                       # number of overall (read+write) accesses
system.l2cache.demand_miss_rate::.cpu.inst     0.692373                       # miss rate for demand accesses
system.l2cache.demand_miss_rate::.cpu.data     0.252002                       # miss rate for demand accesses
system.l2cache.demand_miss_rate::total       0.260030                       # miss rate for demand accesses
system.l2cache.overall_miss_rate::.cpu.inst     0.692373                       # miss rate for overall accesses
system.l2cache.overall_miss_rate::.cpu.data     0.252002                       # miss rate for overall accesses
system.l2cache.overall_miss_rate::total      0.260030                       # miss rate for overall accesses
system.l2cache.demand_avg_miss_latency::.cpu.inst 96183.795696                       # average overall miss latency
system.l2cache.demand_avg_miss_latency::.cpu.data 98340.601910                       # average overall miss latency
system.l2cache.demand_avg_miss_latency::total 98235.905478                       # average overall miss latency
system.l2cache.overall_avg_miss_latency::.cpu.inst 96183.795696                       # average overall miss latency
system.l2cache.overall_avg_miss_latency::.cpu.data 98340.601910                       # average overall miss latency
system.l2cache.overall_avg_miss_latency::total 98235.905478                       # average overall miss latency
system.l2cache.blocked_cycles::no_mshrs             0                       # number of cycles access was blocked
system.l2cache.blocked_cycles::no_targets            0                       # number of cycles access was blocked
system.l2cache.blocked::no_mshrs                    0                       # number of cycles access was blocked
system.l2cache.blocked::no_targets                  0                       # number of cycles access was blocked
system.l2cache.avg_blocked_cycles::no_mshrs          nan                       # average number of cycles each access was blocked
system.l2cache.avg_blocked_cycles::no_targets          nan                       # average number of cycles each access was blocked
system.l2cache.writebacks::.writebacks         352249                       # number of writebacks
system.l2cache.writebacks::total               352249                       # number of writebacks
system.l2cache.demand_mshr_misses::.cpu.inst        38570                       # number of demand (read+write) MSHR misses
system.l2cache.demand_mshr_misses::.cpu.data       755994                       # number of demand (read+write) MSHR misses
system.l2cache.demand_mshr_misses::total       794564                       # number of demand (read+write) MSHR misses
system.l2cache.overall_mshr_misses::.cpu.inst        38570                       # number of overall MSHR misses
system.l2cache.overall_mshr_misses::.cpu.data       755994                       # number of overall MSHR misses
system.l2cache.overall_mshr_misses::total       794564                       # number of overall MSHR misses
system.l2cache.demand_mshr_miss_latency::.cpu.inst   2938409000                       # number of demand (read+write) MSHR miss cycles
system.l2cache.demand_mshr_miss_latency::.cpu.data  59225025000                       # number of demand (read+write) MSHR miss cycles
system.l2cache.demand_mshr_miss_latency::total  62163434000                       # number of demand (read+write) MSHR miss cycles
system.l2cache.overall_mshr_miss_latency::.cpu.inst   2938409000                       # number of overall MSHR miss cycles
system.l2cache.overall_mshr_miss_latency::.cpu.data  59225025000                       # number of overall MSHR miss cycles
system.l2cache.overall_mshr_miss_latency::total  62163434000                       # number of overall MSHR miss cycles
system.l2cache.demand_mshr_miss_rate::.cpu.inst     0.692373                       # mshr miss rate for demand accesses
system.l2cache.demand_mshr_miss_rate::.cpu.data     0.252002                       # mshr miss rate for demand accesses
system.l2cache.demand_mshr_miss_rate::total     0.260030                       # mshr miss rate for demand accesses
system.l2cache.overall_mshr_miss_rate::.cpu.inst     0.692373                       # mshr miss rate for overall accesses
system.l2cache.overall_mshr_miss_rate::.cpu.data     0.252002                       # mshr miss rate for overall accesses
system.l2cache.overall_mshr_miss_rate::total     0.260030                       # mshr miss rate for overall accesses
system.l2cache.demand_avg_mshr_miss_latency::.cpu.inst 76183.795696                       # average overall mshr miss latency
system.l2cache.demand_avg_mshr_miss_latency::.cpu.data 78340.601910                       # average overall mshr miss latency
system.l2cache.demand_avg_mshr_miss_latency::total 78235.905478                       # average overall mshr miss latency
system.l2cache.overall_avg_mshr_miss_latency::.cpu.inst 76183.795696                       # average overall mshr miss latency
system.l2cache.overall_avg_mshr_miss_latency::.cpu.data 78340.601910                       # average overall mshr miss latency
system.l2cache.overall_avg_mshr_miss_latency::total 78235.905478                       # average overall mshr miss latency
system.l2cache.replacements                   1000431                       # number of replacements
system.l2cache.WritebackDirty_hits::.writebacks      2416664                       # number of WritebackDirty hits
system.l2cache.WritebackDirty_hits::total      2416664                       # number of WritebackDirty hits
system.l2cache.WritebackDirty_misses::.writebacks         2126                       # number of WritebackDirty misses
system.l2cache.WritebackDirty_misses::total         2126                       # number of WritebackDirty misses
system.l2cache.WritebackDirty_accesses::.writebacks      2418790                       # number of WritebackDirty accesses(hits+misses)
system.l2cache.WritebackDirty_accesses::total      2418790                       # number of WritebackDirty accesses(hits+misses)
system.l2cache.WritebackDirty_miss_rate::.writebacks     0.000879                       # miss rate for WritebackDirty accesses
system.l2cache.WritebackDirty_miss_rate::total     0.000879                       # miss rate for WritebackDirty accesses
system.l2cache.WritebackDirty_mshr_misses::.writebacks         2126                       # number of WritebackDirty MSHR misses
system.l2cache.WritebackDirty_mshr_misses::total         2126                       # number of WritebackDirty MSHR misses
system.l2cache.WritebackDirty_mshr_miss_rate::.writebacks     0.000879                       # mshr miss rate for WritebackDirty accesses
system.l2cache.WritebackDirty_mshr_miss_rate::total     0.000879                       # mshr miss rate for WritebackDirty accesses
system.l2cache.CleanEvict_mshr_misses::.writebacks       156629                       # number of CleanEvict MSHR misses
system.l2cache.CleanEvict_mshr_misses::total       156629                       # number of CleanEvict MSHR misses
system.l2cache.CleanEvict_mshr_miss_rate::.writebacks          inf                       # mshr miss rate for CleanEvict accesses
system.l2cache.CleanEvict_mshr_miss_rate::total          inf                       # mshr miss rate for CleanEvict accesses
system.l2cache.ReadExReq_hits::.cpu.data       931445                       # number of ReadExReq hits
system.l2cache.ReadExReq_hits::total           931445                       # number of ReadExReq hits
system.l2cache.ReadExReq_misses::.cpu.data       184219                       # number of ReadExReq misses
system.l2cache.ReadExReq_misses::total         184219                       # number of ReadExReq misses
system.l2cache.ReadExReq_miss_latency::.cpu.data  17870902000                       # number of ReadExReq miss cycles
system.l2cache.ReadExReq_miss_latency::total  17870902000                       # number of ReadExReq miss cycles
system.l2cache.ReadExReq_accesses::.cpu.data      1115664                       # number of ReadExReq accesses(hits+misses)
system.l2cache.ReadExReq_accesses::total      1115664                       # number of ReadExReq accesses(hits+misses)
system.l2cache.ReadExReq_miss_rate::.cpu.data     0.165121                       # miss rate for ReadExReq accesses
system.l2cache.ReadExReq_miss_rate::total     0.165121                       # miss rate for ReadExReq accesses
system.l2cache.ReadExReq_avg_miss_latency::.cpu.data 97009.005586                       # average ReadExReq miss latency
system.l2cache.ReadExReq_avg_miss_latency::total 97009.005586                       # average ReadExReq miss latency
system.l2cache.ReadExReq_mshr_misses::.cpu.data       184219                       # number of ReadExReq MSHR misses
system.l2cache.ReadExReq_mshr_misses::total       184219                       # number of ReadExReq MSHR misses
system.l2cache.ReadExReq_mshr_miss_latency::.cpu.data  14186522000                       # number of ReadExReq MSHR miss cycles
system.l2cache.ReadExReq_mshr_miss_latency::total  14186522000                       # number of ReadExReq MSHR miss cycles
system.l2cache.ReadExReq_mshr_miss_rate::.cpu.data     0.165121                       # mshr miss rate for ReadExReq accesses
system.l2cache.ReadExReq_mshr_miss_rate::total     0.165121                       # mshr miss rate for ReadExReq accesses
system.l2cache.ReadExReq_avg_mshr_miss_latency::.cpu.data 77009.005586                       # average ReadExReq mshr miss latency
system.l2cache.ReadExReq_avg_mshr_miss_latency::total 77009.005586                       # average ReadExReq mshr miss latency
system.l2cache.ReadSharedReq_hits::.cpu.inst        17137                       # number of ReadSharedReq hits
system.l2cache.ReadSharedReq_hits::.cpu.data      1312511                       # number of ReadSharedReq hits
system.l2cache.ReadSharedReq_hits::total      1329648                       # number of ReadSharedReq hits
system.l2cache.ReadSharedReq_misses::.cpu.inst        38570                       # number of ReadSharedReq misses
system.l2cache.ReadSharedReq_misses::.cpu.data       571775                       # number of ReadSharedReq misses
system.l2cache.ReadSharedReq_misses::total       610345                       # number of ReadSharedReq misses
system.l2cache.ReadSharedReq_miss_latency::.cpu.inst   3709809000                       # number of ReadSharedReq miss cycles
system.l2cache.ReadSharedReq_miss_latency::.cpu.data  56474003000                       # number of ReadSharedReq miss cycles
system.l2cache.ReadSharedReq_miss_latency::total  60183812000                       # number of ReadSharedReq miss cycles
system.l2cache.ReadSharedReq_accesses::.cpu.inst        55707                       # number of ReadSharedReq accesses(hits+misses)
system.l2cache.ReadSharedReq_accesses::.cpu.data      1884286                       # number of ReadSharedReq accesses(hits+misses)
system.l2cache.ReadSharedReq_accesses::total      1939993                       # number of ReadSharedReq accesses(hits+misses)
system.l2cache.ReadSharedReq_miss_rate::.cpu.inst     0.692373                       # miss rate for ReadSharedReq accesses
system.l2cache.ReadSharedReq_miss_rate::.cpu.data     0.303444                       # miss rate for ReadSharedReq accesses
system.l2cache.ReadSharedReq_miss_rate::total     0.314612                       # miss rate for ReadSharedReq accesses
system.l2cache.ReadSharedReq_avg_miss_latency::.cpu.inst 96183.795696                       # average ReadSharedReq miss latency
system.l2cache.ReadSharedReq_avg_miss_latency::.cpu.data 98769.626164                       # average ReadSharedReq miss latency
system.l2cache.ReadSharedReq_avg_miss_latency::total 98606.217795                       # average ReadSharedReq miss latency
system.l2cache.ReadSharedReq_mshr_misses::.cpu.inst        38570                       # number of ReadSharedReq MSHR misses
system.l2cache.ReadSharedReq_mshr_misses::.cpu.data       571775                       # number of ReadSharedReq MSHR misses
system.l2cache.ReadSharedReq_mshr_misses::total       610345                       # number of ReadSharedReq MSHR misses
system.l2cache.ReadSharedReq_mshr_miss_latency::.cpu.inst   2938409000                       # number of ReadSharedReq MSHR miss cycles
system.l2cache.ReadSharedReq_mshr_miss_latency::.cpu.data  45038503000                       # number of ReadSharedReq MSHR miss cycles
system.l2cache.ReadSharedReq_mshr_miss_latency::total  47976912000                       # number of ReadSharedReq MSHR miss cycles
system.l2cache.ReadSharedReq_mshr_miss_rate::.cpu.inst     0.692373                       # mshr miss rate for ReadSharedReq accesses
system.l2cache.ReadSharedReq_mshr_miss_rate::.cpu.data     0.303444                       # mshr miss rate for ReadSharedReq accesses
system.l2cache.ReadSharedReq_mshr_miss_rate::total     0.314612                       # mshr miss rate for ReadSharedReq accesses
system.l2cache.ReadSharedReq_avg_mshr_miss_latency::.cpu.inst 76183.795696                       # average ReadSharedReq mshr miss latency
system.l2cache.ReadSharedReq_avg_mshr_miss_latency::.cpu.data 78769.626164                       # average ReadSharedReq mshr miss latency
system.l2cache.ReadSharedReq_avg_mshr_miss_latency::total 78606.217795                       # average ReadSharedReq mshr miss latency
system.l2cache.power_state.pwrStateResidencyTicks::UNDEFINED 794499461000                       # Cumulative time (in ticks) in various power states
system.l2cache.replacement_policy.totalBypasses         9944                       # Total number of cache bypasses
system.l2cache.replacement_policy.effectiveBypasses         2630                       # Bypasses that correctly skipped non-reused blocks
system.l2cache.replacement_policy.ineffectiveBypasses         1762                       # Bypasses that incorrectly skipped requested blocks
system.l2cache.replacement_policy.virtualEffectiveBypasses        20801                       # Virtual bypasses correctly predicting non-reused blocks
system.l2cache.replacement_policy.virtualIneffectiveBypasses        18808                       # Virtual bypasses incorrectly predicting requested blocks
system.l2cache.tags.tagsinuse             2047.044673                       # Cycle average of tags in use
system.l2cache.tags.total_refs                5943461                       # Total number of references to valid blocks.
system.l2cache.tags.sampled_refs              1002479                       # Sample count of references to valid blocks.
system.l2cache.tags.avg_refs                 5.928764                       # Average number of references to valid blocks.
system.l2cache.tags.warmup_cycle                86000                       # Cycle when the warmup percentage was hit.
system.l2cache.tags.occ_blocks::.writebacks   369.059417                       # Average occupied blocks per requestor
system.l2cache.tags.occ_blocks::.cpu.inst    56.380921                       # Average occupied blocks per requestor
system.l2cache.tags.occ_blocks::.cpu.data  1621.604334                       # Average occupied blocks per requestor
system.l2cache.tags.occ_percent::.writebacks     0.180205                       # Average percentage of cache occupancy
system.l2cache.tags.occ_percent::.cpu.inst     0.027530                       # Average percentage of cache occupancy
system.l2cache.tags.occ_percent::.cpu.data     0.791799                       # Average percentage of cache occupancy
system.l2cache.tags.occ_percent::total       0.999534                       # Average percentage of cache occupancy
system.l2cache.tags.occ_task_id_blocks::1024         2048                       # Occupied blocks per task id
system.l2cache.tags.age_task_id_blocks_1024::0           63                       # Occupied blocks per task id
system.l2cache.tags.age_task_id_blocks_1024::1          150                       # Occupied blocks per task id
system.l2cache.tags.age_task_id_blocks_1024::2          715                       # Occupied blocks per task id
system.l2cache.tags.age_task_id_blocks_1024::3         1120                       # Occupied blocks per task id
system.l2cache.tags.occ_task_id_percent::1024            1                       # Percentage of cache occupancy per task id
system.l2cache.tags.tag_accesses             49882751                       # Number of tag accesses
system.l2cache.tags.data_accesses            49882751                       # Number of data accesses
system.l2cache.tags.power_state.pwrStateResidencyTicks::UNDEFINED 794499461000                       # Cumulative time (in ticks) in various power states
system.mem_ctrl.avgPriority_.writebacks::samples    354302.00                       # Average QoS priority value for accepted requests
system.mem_ctrl.avgPriority_.cpu.inst::samples     38570.00                       # Average QoS priority value for accepted requests
system.mem_ctrl.avgPriority_.cpu.data::samples    716862.00                       # Average QoS priority value for accepted requests
system.mem_ctrl.priorityMinLatency       0.000000018750                       # per QoS priority minimum request to response latency (s)
system.mem_ctrl.priorityMaxLatency       0.008335896500                       # per QoS priority maximum request to response latency (s)
system.mem_ctrl.numReadWriteTurnArounds         20168                       # Number of turnarounds from READ to WRITE
system.mem_ctrl.numWriteReadTurnArounds         20168                       # Number of turnarounds from WRITE to READ
system.mem_ctrl.numStayReadState              2060378                       # Number of times bus staying in READ state
system.mem_ctrl.numStayWriteState              334495                       # Number of times bus staying in WRITE state
system.mem_ctrl.readReqs                       794564                       # Number of read requests accepted
system.mem_ctrl.writeReqs                      354375                       # Number of write requests accepted
system.mem_ctrl.readBursts                     794564                       # Number of controller read bursts, including those serviced by the write queue
system.mem_ctrl.writeBursts                    354375                       # Number of controller write bursts, including those merged in the write queue
system.mem_ctrl.servicedByWrQ                   39132                       # Number of controller read bursts serviced by the write queue
system.mem_ctrl.mergedWrBursts                     73                       # Number of controller write bursts merged with an existing one
system.mem_ctrl.neitherReadNorWriteReqs             0                       # Number of requests that are neither read nor write
system.mem_ctrl.avgRdQLen                        1.00                       # Average read queue length when enqueuing
system.mem_ctrl.avgWrQLen                       24.55                       # Average write queue length when enqueuing
system.mem_ctrl.numRdRetry                          0                       # Number of times read queue was full causing retry
system.mem_ctrl.numWrRetry                          0                       # Number of times write queue was full causing retry
system.mem_ctrl.readPktSize::0                      0                       # Read request sizes (log2)
system.mem_ctrl.readPktSize::1                      0                       # Read request sizes (log2)
system.mem_ctrl.readPktSize::2                      0                       # Read request sizes (log2)
system.mem_ctrl.readPktSize::3                      0                       # Read request sizes (log2)
system.mem_ctrl.readPktSize::4                      0                       # Read request sizes (log2)
system.mem_ctrl.readPktSize::5                      0                       # Read request sizes (log2)
system.mem_ctrl.readPktSize::6                 794564                       # Read request sizes (log2)
system.mem_ctrl.writePktSize::0                     0                       # Write request sizes (log2)
system.mem_ctrl.writePktSize::1                     0                       # Write request sizes (log2)
system.mem_ctrl.writePktSize::2                     0                       # Write request sizes (log2)
system.mem_ctrl.writePktSize::3                     0                       # Write request sizes (log2)
system.mem_ctrl.writePktSize::4                     0                       # Write request sizes (log2)
system.mem_ctrl.writePktSize::5                     0                       # Write request sizes (log2)
system.mem_ctrl.writePktSize::6                354375                       # Write request sizes (log2)
system.mem_ctrl.rdQLenPdf::0                   755430                       # What read queue length does an incoming req see
system.mem_ctrl.rdQLenPdf::1                        2                       # What read queue length does an incoming req see
system.mem_ctrl.rdQLenPdf::2                        0                       # What read queue length does an incoming req see
system.mem_ctrl.rdQLenPdf::3                        0                       # What read queue length does an incoming req see
system.mem_ctrl.rdQLenPdf::4                        0                       # What read queue length does an incoming req see
system.mem_ctrl.rdQLenPdf::5                        0                       # What read queue length does an incoming req see
system.mem_ctrl.rdQLenPdf::6                        0                       # What read queue length does an incoming req see
system.mem_ctrl.rdQLenPdf::7                        0                       # What read queue length does an incoming req see
system.mem_ctrl.rdQLenPdf::8                        0                       # What read queue length does an incoming req see
system.mem_ctrl.rdQLenPdf::9                        0                       # What read queue length does an incoming req see
system.mem_ctrl.rdQLenPdf::10                       0                       # What read queue length does an incoming req see
system.mem_ctrl.rdQLenPdf::11                       0                       # What read queue length does an incoming req see
system.mem_ctrl.rdQLenPdf::12                       0                       # What read queue length does an incoming req see
system.mem_ctrl.rdQLenPdf::13                       0                       # What read queue length does an incoming req see
system.mem_ctrl.rdQLenPdf::14                       0                       # What read queue length does an incoming req see
system.mem_ctrl.rdQLenPdf::15                       0                       # What read queue length does an incoming req see
system.mem_ctrl.rdQLenPdf::16                       0                       # What read queue length does an incoming req see
system.mem_ctrl.rdQLenPdf::17                       0                       # What read queue length does an incoming req see
system.mem_ctrl.rdQLenPdf::18                       0                       # What read queue length does an incoming req see
system.mem_ctrl.rdQLenPdf::19                       0                       # What read queue length does an incoming req see
system.mem_ctrl.rdQLenPdf::20                       0                       # What read queue length does an incoming req see
system.mem_ctrl.rdQLenPdf::21                       0                       # What read queue length does an incoming req see
system.mem_ctrl.rdQLenPdf::22                       0                       # What read queue length does an incoming req see
system.mem_ctrl.rdQLenPdf::23                       0                       # What read queue length does an incoming req see
system.mem_ctrl.rdQLenPdf::24                       0                       # What read queue length does an incoming req see
system.mem_ctrl.rdQLenPdf::25                       0                       # What read queue length does an incoming req see
system.mem_ctrl.rdQLenPdf::26                       0                       # What read queue length does an incoming req see
system.mem_ctrl.rdQLenPdf::27                       0                       # What read queue length does an incoming req see
system.mem_ctrl.rdQLenPdf::28                       0                       # What read queue length does an incoming req see
system.mem_ctrl.rdQLenPdf::29                       0                       # What read queue length does an incoming req see
system.mem_ctrl.rdQLenPdf::30                       0                       # What read queue length does an incoming req see
system.mem_ctrl.rdQLenPdf::31                       0                       # What read queue length does an incoming req see
system.mem_ctrl.wrQLenPdf::0                        1                       # What write queue length does an incoming req see
system.mem_ctrl.wrQLenPdf::1                        1                       # What write queue length does an incoming req see
system.mem_ctrl.wrQLenPdf::2                        1                       # What write queue length does an incoming req see
system.mem_ctrl.wrQLenPdf::3                        1                       # What write queue length does an incoming req see
system.mem_ctrl.wrQLenPdf::4                        1                       # What write queue length does an incoming req see
system.mem_ctrl.wrQLenPdf::5                        1                       # What write queue length does an incoming req see
system.mem_ctrl.wrQLenPdf::6                        1                       # What write queue length does an incoming req see
system.mem_ctrl.wrQLenPdf::7                        1                       # What write queue length does an incoming req see
system.mem_ctrl.wrQLenPdf::8                        1                       # What write queue length does an incoming req see
system.mem_ctrl.wrQLenPdf::9                        1                       # What write queue length does an incoming req see
system.mem_ctrl.wrQLenPdf::10                       1                       # What write queue length does an incoming req see
system.mem_ctrl.wrQLenPdf::11                       1                       # What write queue length does an incoming req see
system.mem_ctrl.wrQLenPdf::12                       1                       # What write queue length does an incoming req see
system.mem_ctrl.wrQLenPdf::13                       1                       # What write queue length does an incoming req see
system.mem_ctrl.wrQLenPdf::14                       1                       # What write queue length does an incoming req see
system.mem_ctrl.wrQLenPdf::15                   14835                       # What write queue length does an incoming req see
system.mem_ctrl.wrQLenPdf::16                   15694                       # What write queue length does an incoming req see
system.mem_ctrl.wrQLenPdf::17                   19904                       # What write queue length does an incoming req see
system.mem_ctrl.wrQLenPdf::18                   20439                       # What write queue length does an incoming req see
system.mem_ctrl.wrQLenPdf::19                   20428                       # What write queue length does an incoming req see
system.mem_ctrl.wrQLenPdf::20                   20281                       # What write queue length does an incoming req see
system.mem_ctrl.wrQLenPdf::21                   20703                       # What write queue length does an incoming req see
system.mem_ctrl.wrQLenPdf::22                   20224                       # What write queue length does an incoming req see
system.mem_ctrl.wrQLenPdf::23                   20198                       # What write queue length does an incoming req see
system.mem_ctrl.wrQLenPdf::24                   20184                       # What write queue length does an incoming req see
system.mem_ctrl.wrQLenPdf::25                   20182                       # What write queue length does an incoming req see
system.mem_ctrl.wrQLenPdf::26                   20169                       # What write queue length does an incoming req see
system.mem_ctrl.wrQLenPdf::27                   20172                       # What write queue length does an incoming req see
system.mem_ctrl.wrQLenPdf::28                   20169                       # What write queue length does an incoming req see
system.mem_ctrl.wrQLenPdf::29                   20171                       # What write queue length does an incoming req see
system.mem_ctrl.wrQLenPdf::30                   20168                       # What write queue length does an incoming req see
system.mem_ctrl.wrQLenPdf::31                   20168                       # What write queue length does an incoming req see
system.mem_ctrl.wrQLenPdf::32                   20168                       # What write queue length does an incoming req see
system.mem_ctrl.wrQLenPdf::33                      26                       # What write queue length does an incoming req see
system.mem_ctrl.wrQLenPdf::34                       3                       # What write queue length does an incoming req see
system.mem_ctrl.wrQLenPdf::35                       1                       # What write queue length does an incoming req see
system.mem_ctrl.wrQLenPdf::36                       0                       # What write queue length does an incoming req see
system.mem_ctrl.wrQLenPdf::37                       0                       # What write queue length does an incoming req see
system.mem_ctrl.wrQLenPdf::38                       0                       # What write queue length does an incoming req see
system.mem_ctrl.wrQLenPdf::39                       0                       # What write queue length does an incoming req see
system.mem_ctrl.wrQLenPdf::40                       0                       # What write queue length does an incoming req see
system.mem_ctrl.wrQLenPdf::41                       0                       # What write queue length does an incoming req see
system.mem_ctrl.wrQLenPdf::42                       0                       # What write queue length does an incoming req see
system.mem_ctrl.wrQLenPdf::43                       0                       # What write queue length does an incoming req see
system.mem_ctrl.wrQLenPdf::44                       0                       # What write queue length does an incoming req see
system.mem_ctrl.wrQLenPdf::45                       0                       # What write queue length does an incoming req see
system.mem_ctrl.wrQLenPdf::46                       0                       # What write queue length does an incoming req see
system.mem_ctrl.wrQLenPdf::47                       0                       # What write queue length does an incoming req see
system.mem_ctrl.wrQLenPdf::48                       0                       # What write queue length does an incoming req see
system.mem_ctrl.wrQLenPdf::49                       0                       # What write queue length does an incoming req see
system.mem_ctrl.wrQLenPdf::50                       0                       # What write queue length does an incoming req see
system.mem_ctrl.wrQLenPdf::51                       0                       # What write queue length does an incoming req see
system.mem_ctrl.wrQLenPdf::52                       0                       # What write queue length does an incoming req see
system.mem_ctrl.wrQLenPdf::53                       0                       # What write queue length does an incoming req see
system.mem_ctrl.wrQLenPdf::54                       0                       # What write queue length does an incoming req see
system.mem_ctrl.wrQLenPdf::55                       0                       # What write queue length does an incoming req see
system.mem_ctrl.wrQLenPdf::56                       0                       # What write queue length does an incoming req see
system.mem_ctrl.wrQLenPdf::57                       0                       # What write queue length does an incoming req see
system.mem_ctrl.wrQLenPdf::58                       0                       # What write queue length does an incoming req see
system.mem_ctrl.wrQLenPdf::59                       0                       # What write queue length does an incoming req see
system.mem_ctrl.wrQLenPdf::60                       0                       # What write queue length does an incoming req see
system.mem_ctrl.wrQLenPdf::61                       0                       # What write queue length does an incoming req see
system.mem_ctrl.wrQLenPdf::62                       0                       # What write queue length does an incoming req see
system.mem_ctrl.wrQLenPdf::63                       0                       # What write queue length does an incoming req see
system.mem_ctrl.rdPerTurnAround::samples        20168                       # Reads before turning the bus around for writes
system.mem_ctrl.rdPerTurnAround::mean       37.453887                       # Reads before turning the bus around for writes
system.mem_ctrl.rdPerTurnAround::stdev      39.346193                       # Reads before turning the bus around for writes
system.mem_ctrl.rdPerTurnAround::0-127          19948     98.91%     98.91% # Reads before turning the bus around for writes
system.mem_ctrl.rdPerTurnAround::128-255          124      0.61%     99.52% # Reads before turning the bus around for writes
system.mem_ctrl.rdPerTurnAround::256-383           35      0.17%     99.70% # Reads before turning the bus around for writes
system.mem_ctrl.rdPerTurnAround::384-511           46      0.23%     99.93% # Reads before turning the bus around for writes
system.mem_ctrl.rdPerTurnAround::512-639           14      0.07%    100.00% # Reads before turning the bus around for writes
system.mem_ctrl.rdPerTurnAround::2816-2943            1      0.00%    100.00% # Reads before turning the bus around for writes
system.mem_ctrl.rdPerTurnAround::total          20168                       # Reads before turning the bus around for writes
system.mem_ctrl.wrPerTurnAround::samples        20168                       # Writes before turning the bus around for reads
system.mem_ctrl.wrPerTurnAround::mean       17.566045                       # Writes before turning the bus around for reads
system.mem_ctrl.wrPerTurnAround::gmean      17.542445                       # Writes before turning the bus around for reads
system.mem_ctrl.wrPerTurnAround::stdev       0.895769                       # Writes before turning the bus around for reads
system.mem_ctrl.wrPerTurnAround::16              4529     22.46%     22.46% # Writes before turning the bus around for reads
system.mem_ctrl.wrPerTurnAround::17               751      3.72%     26.18% # Writes before turning the bus around for reads
system.mem_ctrl.wrPerTurnAround::18             13858     68.71%     94.89% # Writes before turning the bus around for reads
system.mem_ctrl.wrPerTurnAround::19              1004      4.98%     99.87% # Writes before turning the bus around for reads
system.mem_ctrl.wrPerTurnAround::20                25      0.12%    100.00% # Writes before turning the bus around for reads
system.mem_ctrl.wrPerTurnAround::21                 1      0.00%    100.00% # Writes before turning the bus around for reads
system.mem_ctrl.wrPerTurnAround::total          20168                       # Writes before turning the bus around for reads
system.mem_ctrl.bytesReadWrQ                  2504448                       # Total number of bytes read from write queue
system.mem_ctrl.bytesReadSys                 50852096                       # Total read bytes from the system interface side
system.mem_ctrl.bytesWrittenSys              22680000                       # Total written bytes from the system interface side
system.mem_ctrl.avgRdBWSys                      64.01                       # Average system read bandwidth in MiByte/s
system.mem_ctrl.avgWrBWSys                      28.55                       # Average system write bandwidth in MiByte/s
system.mem_ctrl.totGap                   794499362000                       # Total gap between requests
system.mem_ctrl.avgGap                      691507.00                       # Average gap between requests
[...]
system.mem_ctrl.requestorReadRate::.cpu.data 57746002.674758262932                       # Per-requestor bytes read from memory rate (Bytes/sec)
system.mem_ctrl.requestorWriteRate::.writebacks 28537977.825009498745                       # Per-requestor bytes write to memory rate (Bytes/sec)
system.mem_ctrl.requestorReadAccesses::.cpu.inst        38570                       # Per-requestor read serviced memory accesses
system.mem_ctrl.requestorReadAccesses::.cpu.data       755994                       # Per-requestor read serviced memory accesses
system.mem_ctrl.requestorWriteAccesses::.writebacks       354375                       # Per-requestor write serviced memory accesses
system.mem_ctrl.requestorReadTotalLat::.cpu.inst    960424500                       # Per-requestor read total memory access latency
system.mem_ctrl.requestorReadTotalLat::.cpu.data  20812670500                       # Per-requestor read total memory access latency
system.mem_ctrl.requestorWriteTotalLat::.writebacks 18733330755250                       # Per-requestor write total memory access latency
system.mem_ctrl.requestorReadAvgLat::.cpu.inst     24900.82                       # Per-requestor read average memory access latency
system.mem_ctrl.requestorReadAvgLat::.cpu.data     27530.21                       # Per-requestor read average memory access latency
system.mem_ctrl.requestorWriteAvgLat::.writebacks  52863014.48                       # Per-requestor write average memory access latency
system.mem_ctrl.dram.bytes_read::.cpu.inst      2468480                       # Number of bytes read from this memory
system.mem_ctrl.dram.bytes_read::.cpu.data     48383616                       # Number of bytes read from this memory
system.mem_ctrl.dram.bytes_read::total       50852096                       # Number of bytes read from this memory
system.mem_ctrl.dram.bytes_inst_read::.cpu.inst      2468480                       # Number of instructions bytes read from this memory
system.mem_ctrl.dram.bytes_inst_read::total      2468480                       # Number of instructions bytes read from this memory
system.mem_ctrl.dram.bytes_written::.writebacks     22680000                       # Number of bytes written to this memory
system.mem_ctrl.dram.bytes_written::total     22680000                       # Number of bytes written to this memory
system.mem_ctrl.dram.num_reads::.cpu.inst        38570                       # Number of read requests responded to by this memory
system.mem_ctrl.dram.num_reads::.cpu.data       755994                       # Number of read requests responded to by this memory
system.mem_ctrl.dram.num_reads::total          794564                       # Number of read requests responded to by this memory
system.mem_ctrl.dram.num_writes::.writebacks       354375                       # Number of write requests responded to by this memory
system.mem_ctrl.dram.num_writes::total         354375                       # Number of write requests responded to by this memory
system.mem_ctrl.dram.bw_read::.cpu.inst       3106962                       # Total read bandwidth from this memory (bytes/s)
system.mem_ctrl.dram.bw_read::.cpu.data      60898236                       # Total read bandwidth from this memory (bytes/s)
system.mem_ctrl.dram.bw_read::total          64005199                       # Total read bandwidth from this memory (bytes/s)
system.mem_ctrl.dram.bw_inst_read::.cpu.inst      3106962                       # Instruction read bandwidth from this memory (bytes/s)
system.mem_ctrl.dram.bw_inst_read::total      3106962                       # Instruction read bandwidth from this memory (bytes/s)
system.mem_ctrl.dram.bw_write::.writebacks     28546275                       # Write bandwidth from this memory (bytes/s)
system.mem_ctrl.dram.bw_write::total         28546275                       # Write bandwidth from this memory (bytes/s)
system.mem_ctrl.dram.bw_total::.writebacks     28546275                       # Total bandwidth to/from this memory (bytes/s)
system.mem_ctrl.dram.bw_total::.cpu.inst      3106962                       # Total bandwidth to/from this memory (bytes/s)
system.mem_ctrl.dram.bw_total::.cpu.data     60898236                       # Total bandwidth to/from this memory (bytes/s)
system.mem_ctrl.dram.bw_total::total         92551474                       # Total bandwidth to/from this memory (bytes/s)
system.mem_ctrl.dram.readBursts                755432                       # Number of DRAM read bursts
system.mem_ctrl.dram.writeBursts               354272                       # Number of DRAM write bursts
system.mem_ctrl.dram.perBankRdBursts::0         33701                       # Per bank write bursts
system.mem_ctrl.dram.perBankRdBursts::1         47514                       # Per bank write bursts
system.mem_ctrl.dram.perBankRdBursts::2         40434                       # Per bank write bursts
system.mem_ctrl.dram.perBankRdBursts::3         42026                       # Per bank write bursts
system.mem_ctrl.dram.perBankRdBursts::4         27706                       # Per bank write bursts
system.mem_ctrl.dram.perBankRdBursts::5         27322                       # Per bank write bursts
system.mem_ctrl.dram.perBankRdBursts::6         33966                       # Per bank write bursts
system.mem_ctrl.dram.perBankRdBursts::7         48370                       # Per bank write bursts
system.mem_ctrl.dram.perBankRdBursts::8         31238                       # Per bank write bursts
system.mem_ctrl.dram.perBankRdBursts::9         71813                       # Per bank write bursts
system.mem_ctrl.dram.perBankRdBursts::10        51459                       # Per bank write bursts
system.mem_ctrl.dram.perBankRdBursts::11        78877                       # Per bank write bursts
system.mem_ctrl.dram.perBankRdBursts::12        64660                       # Per bank write bursts
system.mem_ctrl.dram.perBankRdBursts::13        64136                       # Per bank write bursts
system.mem_ctrl.dram.perBankRdBursts::14        42869                       # Per bank write bursts
system.mem_ctrl.dram.perBankRdBursts::15        49341                       # Per bank write bursts
system.mem_ctrl.dram.perBankWrBursts::0          7527                       # Per bank write bursts
system.mem_ctrl.dram.perBankWrBursts::1         21314                       # Per bank write bursts
system.mem_ctrl.dram.perBankWrBursts::2         11243                       # Per bank write bursts
system.mem_ctrl.dram.perBankWrBursts::3         16888                       # Per bank write bursts
system.mem_ctrl.dram.perBankWrBursts::4          3896                       # Per bank write bursts
system.mem_ctrl.dram.perBankWrBursts::5         14485                       # Per bank write bursts
system.mem_ctrl.dram.perBankWrBursts::6         20490                       # Per bank write bursts
system.mem_ctrl.dram.perBankWrBursts::7         37146                       # Per bank write bursts
system.mem_ctrl.dram.perBankWrBursts::8         18762                       # Per bank write bursts
system.mem_ctrl.dram.perBankWrBursts::9         33240                       # Per bank write bursts
system.mem_ctrl.dram.perBankWrBursts::10        28417                       # Per bank write bursts
system.mem_ctrl.dram.perBankWrBursts::11        38102                       # Per bank write bursts
system.mem_ctrl.dram.perBankWrBursts::12        28551                       # Per bank write bursts
system.mem_ctrl.dram.perBankWrBursts::13        37699                       # Per bank write bursts
system.mem_ctrl.dram.perBankWrBursts::14        20973                       # Per bank write bursts
system.mem_ctrl.dram.perBankWrBursts::15        15539                       # Per bank write bursts
system.mem_ctrl.dram.totQLat               7608745000                       # Total ticks spent queuing
system.mem_ctrl.dram.totBusLat             3777160000                       # Total ticks spent in databus transfers
system.mem_ctrl.dram.totMemAccLat         21773095000                       # Total ticks spent from burst creation until serviced by the DRAM
system.mem_ctrl.dram.avgQLat                 10072.04                       # Average queueing delay per DRAM burst
system.mem_ctrl.dram.avgBusLat                5000.00                       # Average bus latency per DRAM burst
system.mem_ctrl.dram.avgMemAccLat            28822.04                       # Average memory access latency per DRAM burst
system.mem_ctrl.dram.readRowHits               503017                       # Number of row buffer hits during reads
system.mem_ctrl.dram.writeRowHits              287179                       # Number of row buffer hits during writes
system.mem_ctrl.dram.readRowHitRate             66.59                       # Row buffer hit rate for reads
system.mem_ctrl.dram.writeRowHitRate            81.06                       # Row buffer hit rate for writes
system.mem_ctrl.dram.bytesPerActivate::samples       319499                       # Bytes accessed per row activation
system.mem_ctrl.dram.bytesPerActivate::mean   222.284414                       # Bytes accessed per row activation
system.mem_ctrl.dram.bytesPerActivate::gmean   148.731863                       # Bytes accessed per row activation
system.mem_ctrl.dram.bytesPerActivate::stdev   227.101109                       # Bytes accessed per row activation
system.mem_ctrl.dram.bytesPerActivate::0-127       129267     40.46%     40.46% # Bytes accessed per row activation
system.mem_ctrl.dram.bytesPerActivate::128-255        90401     28.29%     68.75% # Bytes accessed per row activation
system.mem_ctrl.dram.bytesPerActivate::256-383        35345     11.06%     79.82% # Bytes accessed per row activation
system.mem_ctrl.dram.bytesPerActivate::384-511        25677      8.04%     87.85% # Bytes accessed per row activation
system.mem_ctrl.dram.bytesPerActivate::512-639        13787      4.32%     92.17% # Bytes accessed per row activation
system.mem_ctrl.dram.bytesPerActivate::640-767         8202      2.57%     94.74% # Bytes accessed per row activation
system.mem_ctrl.dram.bytesPerActivate::768-895         4893      1.53%     96.27% # Bytes accessed per row activation
system.mem_ctrl.dram.bytesPerActivate::896-1023         5228      1.64%     97.90% # Bytes accessed per row activation
system.mem_ctrl.dram.bytesPerActivate::1024-1151         6699      2.10%    100.00% # Bytes accessed per row activation
system.mem_ctrl.dram.bytesPerActivate::total       319499                       # Bytes accessed per row activation
system.mem_ctrl.dram.bytesRead               48347648                       # Total number of bytes read from DRAM
system.mem_ctrl.dram.bytesWritten            22673408                       # Total number of bytes written to DRAM
system.mem_ctrl.dram.avgRdBW                60.852965                       # Average DRAM read bandwidth in MiBytes/s
system.mem_ctrl.dram.avgWrBW                28.537978                       # Average DRAM write bandwidth in MiBytes/s
system.mem_ctrl.dram.peakBW                  12800.00                       # Theoretical peak bandwidth in MiByte/s
system.mem_ctrl.dram.busUtil                     0.70                       # Data bus utilization in percentage
system.mem_ctrl.dram.busUtilRead                 0.48                       # Data bus utilization in percentage for reads
system.mem_ctrl.dram.busUtilWrite                0.22                       # Data bus utilization in percentage for writes
system.mem_ctrl.dram.pageHitRate                71.21                       # Row buffer hit rate, read and write combined
system.mem_ctrl.dram.power_state.pwrStateResidencyTicks::UNDEFINED 794499461000                       # Cumulative time (in ticks) in various power states
system.mem_ctrl.dram.rank0.actEnergy        725845260                       # Energy for activate commands per rank (pJ)
system.mem_ctrl.dram.rank0.preEnergy        385784520                       # Energy for precharge commands per rank (pJ)
system.mem_ctrl.dram.rank0.readEnergy      2149418460                       # Energy for read commands per rank (pJ)
system.mem_ctrl.dram.rank0.writeEnergy      694202580                       # Energy for write commands per rank (pJ)
system.mem_ctrl.dram.rank0.refreshEnergy 62716636320.000008                       # Energy for refresh commands per rank (pJ)
system.mem_ctrl.dram.rank0.actBackEnergy 144989864310                       # Energy for active background per rank (pJ)
system.mem_ctrl.dram.rank0.preBackEnergy 182991065280                       # Energy for precharge background per rank (pJ)
system.mem_ctrl.dram.rank0.actPowerDownEnergy            0                       # Energy for active power-down per rank (pJ)
system.mem_ctrl.dram.rank0.prePowerDownEnergy            0                       # Energy for precharge power-down per rank (pJ)
system.mem_ctrl.dram.rank0.selfRefreshEnergy            0                       # Energy for self refresh per rank (pJ)
system.mem_ctrl.dram.rank0.totalEnergy   394652816730                       # Total energy per rank (pJ)
system.mem_ctrl.dram.rank0.averagePower    496.731384                       # Core power per rank (mW)
system.mem_ctrl.dram.rank0.totalIdleTime            0                       # Total Idle time Per DRAM Rank
system.mem_ctrl.dram.rank0.pwrStateTime::IDLE 474348514750                       # Time in different power states
system.mem_ctrl.dram.rank0.pwrStateTime::REF  26529880000                       # Time in different power states
system.mem_ctrl.dram.rank0.pwrStateTime::SREF            0                       # Time in different power states
system.mem_ctrl.dram.rank0.pwrStateTime::PRE_PDN            0                       # Time in different power states
system.mem_ctrl.dram.rank0.pwrStateTime::ACT 293621066250                       # Time in different power states
system.mem_ctrl.dram.rank0.pwrStateTime::ACT_PDN            0                       # Time in different power states
system.mem_ctrl.dram.rank1.actEnergy       1555441860                       # Energy for activate commands per rank (pJ)
system.mem_ctrl.dram.rank1.preEnergy        826714185                       # Energy for precharge commands per rank (pJ)
system.mem_ctrl.dram.rank1.readEnergy      3244366020                       # Energy for read commands per rank (pJ)
system.mem_ctrl.dram.rank1.writeEnergy     1155097260                       # Energy for write commands per rank (pJ)
system.mem_ctrl.dram.rank1.refreshEnergy 62716636320.000008                       # Energy for refresh commands per rank (pJ)
system.mem_ctrl.dram.rank1.actBackEnergy 200049173340                       # Energy for active background per rank (pJ)
system.mem_ctrl.dram.rank1.preBackEnergy 136625331360                       # Energy for precharge background per rank (pJ)
system.mem_ctrl.dram.rank1.actPowerDownEnergy            0                       # Energy for active power-down per rank (pJ)
system.mem_ctrl.dram.rank1.prePowerDownEnergy            0                       # Energy for precharge power-down per rank (pJ)
system.mem_ctrl.dram.rank1.selfRefreshEnergy            0                       # Energy for self refresh per rank (pJ)
system.mem_ctrl.dram.rank1.totalEnergy   406172760345                       # Total energy per rank (pJ)
system.mem_ctrl.dram.rank1.averagePower    511.231008                       # Core power per rank (mW)
system.mem_ctrl.dram.rank1.totalIdleTime            0                       # Total Idle time Per DRAM Rank
system.mem_ctrl.dram.rank1.pwrStateTime::IDLE 353233737500                       # Time in different power states
system.mem_ctrl.dram.rank1.pwrStateTime::REF  26529880000                       # Time in different power states
system.mem_ctrl.dram.rank1.pwrStateTime::SREF            0                       # Time in different power states
system.mem_ctrl.dram.rank1.pwrStateTime::PRE_PDN            0                       # Time in different power states
system.mem_ctrl.dram.rank1.pwrStateTime::ACT 414735843500                       # Time in different power states
system.mem_ctrl.dram.rank1.pwrStateTime::ACT_PDN            0                       # Time in different power states
system.mem_ctrl.power_state.pwrStateResidencyTicks::UNDEFINED 794499461000                       # Cumulative time (in ticks) in various power states
system.membus.trans_dist::ReadResp             610345                       # Transaction distribution
system.membus.trans_dist::WritebackDirty       354375                       # Transaction distribution
system.membus.trans_dist::CleanEvict           437819                       # Transaction distribution
system.membus.trans_dist::ReadExReq            184219                       # Transaction distribution
system.membus.trans_dist::ReadExResp           184219                       # Transaction distribution
system.membus.trans_dist::ReadSharedReq        610345                       # Transaction distribution
system.membus.pkt_count_system.l2cache.mem_side_port::system.mem_ctrl.port      2381322                       # Packet count per connected requestor and responder (bytes)
system.membus.pkt_count_system.l2cache.mem_side_port::total      2381322                       # Packet count per connected requestor and responder (bytes)
system.membus.pkt_count::total                2381322                       # Packet count per connected requestor and responder (bytes)
system.membus.pkt_size_system.l2cache.mem_side_port::system.mem_ctrl.port     73532096                       # Cumulative packet size per connected requestor and responder (bytes)
system.membus.pkt_size_system.l2cache.mem_side_port::total     73532096                       # Cumulative packet size per connected requestor and responder (bytes)
system.membus.pkt_size::total                73532096                       # Cumulative packet size per connected requestor and responder (bytes)
system.membus.snoops                                0                       # Total snoops (count)
system.membus.snoopTraffic                          0                       # Total snoop traffic (bytes)
system.membus.snoop_fanout::samples            794564                       # Request fanout histogram
system.membus.snoop_fanout::mean                    0                       # Request fanout histogram
system.membus.snoop_fanout::stdev                   0                       # Request fanout histogram
system.membus.snoop_fanout::underflows              0      0.00%      0.00% # Request fanout histogram
system.membus.snoop_fanout::0                  794564    100.00%    100.00% # Request fanout histogram
system.membus.snoop_fanout::1                       0      0.00%    100.00% # Request fanout histogram
system.membus.snoop_fanout::overflows               0      0.00%    100.00% # Request fanout histogram
system.membus.snoop_fanout::min_value               0                       # Request fanout histogram
system.membus.snoop_fanout::max_value               0                       # Request fanout histogram
system.membus.snoop_fanout::total              794564                       # Request fanout histogram
system.membus.power_state.pwrStateResidencyTicks::UNDEFINED 794499461000                       # Cumulative time (in ticks) in various power states
system.membus.reqLayer2.occupancy          3004258000                       # Layer occupancy (ticks)
system.membus.reqLayer2.utilization               0.4                       # Layer utilization (%)
system.membus.respLayer0.occupancy         4229974500                       # Layer occupancy (ticks)
system.membus.respLayer0.utilization              0.5                       # Layer utilization (%)

---------- End Simulation Statistics   ----------
