
---------- Begin Simulation Statistics ----------
final_tick                                  176267000                       # Number of ticks from beginning of simulation (restored from checkpoints and never reset)
host_inst_rate                                  17819                       # Simulator instruction rate (inst/s)
host_mem_usage                                 645084                       # Number of bytes of host memory used
host_op_rate                                    36432                       # Simulator op (including micro ops) rate (op/s)
host_seconds                                     1.90                       # Real time elapsed on the host
host_tick_rate                               92938939                       # Simulator tick rate (ticks/s)
sim_freq                                 1000000000000                       # Frequency of simulated ticks
sim_insts                                       33790                       # Number of instructions simulated
sim_ops                                         69094                       # Number of ops (including micro ops) simulated
sim_seconds                                  0.000176                       # Number of seconds simulated
sim_ticks                                   176267000                       # Number of ticks simulated
system.cpu.cc_regfile_reads                     22485                       # number of cc regfile reads
system.cpu.cc_regfile_writes                    53161                       # number of cc regfile writes
system.cpu.committedInsts                       33790                       # Number of Instructions Simulated
system.cpu.committedOps                         69094                       # Number of Ops (including micro ops) Simulated
system.cpu.cpi                               5.216573                       # CPI: Cycles Per Instruction
system.cpu.cpi_total                         5.216573                       # CPI: Total CPI of All Threads
system.cpu.fp_regfile_reads                      1737                       # number of floating regfile reads
system.cpu.fp_regfile_writes                      805                       # number of floating regfile writes
system.cpu.idleCycles                           21557                       # Total number of cycles that the CPU has spent unscheduled due to idling
system.cpu.iew.branchMispredicts                  653                       # Number of branch mispredicts detected at execute
system.cpu.iew.exec_branches                     4643                       # Number of branches executed
system.cpu.iew.exec_nop                             0                       # number of nop insts executed
system.cpu.iew.exec_rate                     1.666797                       # Inst execution rate
system.cpu.iew.exec_refs                       236803                       # number of memory reference insts executed
system.cpu.iew.exec_stores                       2120                       # Number of stores executed
system.cpu.iew.exec_swp                             0                       # number of swp insts executed
system.cpu.iew.iewBlockCycles                   12047                       # Number of cycles IEW is blocking
system.cpu.iew.iewDispLoadInsts                 19819                       # Number of dispatched load instructions
system.cpu.iew.iewDispNonSpecInsts                  0                       # Number of dispatched non-speculative instructions
system.cpu.iew.iewDispSquashedInsts                81                       # Number of squashed instructions skipped by dispatch
system.cpu.iew.iewDispStoreInsts                 2573                       # Number of dispatched store instructions
system.cpu.iew.iewDispatchedInsts               82818                       # Number of instructions dispatched to IQ
system.cpu.iew.iewExecLoadInsts                234683                       # Number of load instructions executed
system.cpu.iew.iewExecSquashedInsts               854                       # Number of squashed instructions skipped in execute
system.cpu.iew.iewExecutedInsts                293803                       # Number of executed instructions
system.cpu.iew.iewIQFullEvents                     23                       # Number of times the IQ has become full, causing a stall
system.cpu.iew.iewIdleCycles                        0                       # Number of cycles IEW is idle
system.cpu.iew.iewLSQFullEvents                  6494                       # Number of times the LSQ has become full, causing a stall
system.cpu.iew.iewSquashCycles                    576                       # Number of cycles IEW is squashing
system.cpu.iew.iewUnblockCycles                  6606                       # Number of cycles IEW is unblocking
system.cpu.iew.memOrderViolationEvents             16                       # Number of memory order violations
system.cpu.iew.predictedNotTakenIncorrect          574                       # Number of branches that were predicted not taken incorrectly
system.cpu.iew.predictedTakenIncorrect             79                       # Number of branches that were predicted taken incorrectly
system.cpu.iew.wb_consumers                     73986                       # num instructions consuming a value
system.cpu.iew.wb_count                         77728                       # cumulative count of insts written-back
system.cpu.iew.wb_fanout                     0.842686                       # average fanout of values written-back
system.cpu.iew.wb_producers                     62347                       # num instructions producing a value
system.cpu.iew.wb_rate                       0.440965                       # insts written-back per cycle
system.cpu.iew.wb_sent                          77994                       # cumulative count of insts sent to commit
system.cpu.int_regfile_reads                   548725                       # number of integer regfile reads
system.cpu.int_regfile_writes                   69838                       # number of integer regfile writes
system.cpu.ipc                               0.191697                       # IPC: Instructions Per Cycle
system.cpu.ipc_total                         0.191697                       # IPC: Total IPC of All Threads
system.cpu.iq.FU_type_0::No_OpClass               644      0.22%      0.22% # Type of FU issued
system.cpu.iq.FU_type_0::IntAlu                 56300     19.11%     19.33% # Type of FU issued
system.cpu.iq.FU_type_0::IntMult                    6      0.00%     19.33% # Type of FU issued
system.cpu.iq.FU_type_0::IntDiv                    30      0.01%     19.34% # Type of FU issued
system.cpu.iq.FU_type_0::FloatAdd                 136      0.05%     19.38% # Type of FU issued
system.cpu.iq.FU_type_0::FloatCmp                   0      0.00%     19.38% # Type of FU issued
system.cpu.iq.FU_type_0::FloatCvt                   0      0.00%     19.38% # Type of FU issued
system.cpu.iq.FU_type_0::FloatMult                  0      0.00%     19.38% # Type of FU issued
system.cpu.iq.FU_type_0::FloatMultAcc               0      0.00%     19.38% # Type of FU issued
system.cpu.iq.FU_type_0::FloatDiv                   0      0.00%     19.38% # Type of FU issued
system.cpu.iq.FU_type_0::FloatMisc                  0      0.00%     19.38% # Type of FU issued
system.cpu.iq.FU_type_0::FloatSqrt                  0      0.00%     19.38% # Type of FU issued
system.cpu.iq.FU_type_0::SimdAdd                    0      0.00%     19.38% # Type of FU issued
system.cpu.iq.FU_type_0::SimdAddAcc                 0      0.00%     19.38% # Type of FU issued
system.cpu.iq.FU_type_0::SimdAlu                  164      0.06%     19.44% # Type of FU issued
system.cpu.iq.FU_type_0::SimdCmp                   12      0.00%     19.44% # Type of FU issued
system.cpu.iq.FU_type_0::SimdCvt                   78      0.03%     19.47% # Type of FU issued
system.cpu.iq.FU_type_0::SimdMisc                 248      0.08%     19.55% # Type of FU issued
system.cpu.iq.FU_type_0::SimdMult                   0      0.00%     19.55% # Type of FU issued
system.cpu.iq.FU_type_0::SimdMultAcc                0      0.00%     19.55% # Type of FU issued
system.cpu.iq.FU_type_0::SimdShift                  0      0.00%     19.55% # Type of FU issued
system.cpu.iq.FU_type_0::SimdShiftAcc               0      0.00%     19.55% # Type of FU issued
system.cpu.iq.FU_type_0::SimdDiv                    0      0.00%     19.55% # Type of FU issued
system.cpu.iq.FU_type_0::SimdSqrt                   0      0.00%     19.55% # Type of FU issued
system.cpu.iq.FU_type_0::SimdFloatAdd               0      0.00%     19.55% # Type of FU issued
system.cpu.iq.FU_type_0::SimdFloatAlu               0      0.00%     19.55% # Type of FU issued
system.cpu.iq.FU_type_0::SimdFloatCmp               0      0.00%     19.55% # Type of FU issued
system.cpu.iq.FU_type_0::SimdFloatCvt               0      0.00%     19.55% # Type of FU issued
system.cpu.iq.FU_type_0::SimdFloatDiv               0      0.00%     19.55% # Type of FU issued
system.cpu.iq.FU_type_0::SimdFloatMisc              0      0.00%     19.55% # Type of FU issued
system.cpu.iq.FU_type_0::SimdFloatMult              0      0.00%     19.55% # Type of FU issued
system.cpu.iq.FU_type_0::SimdFloatMultAcc            0      0.00%     19.55% # Type of FU issued
system.cpu.iq.FU_type_0::SimdFloatSqrt              0      0.00%     19.55% # Type of FU issued
system.cpu.iq.FU_type_0::SimdReduceAdd              0      0.00%     19.55% # Type of FU issued
system.cpu.iq.FU_type_0::SimdReduceAlu              0      0.00%     19.55% # Type of FU issued
system.cpu.iq.FU_type_0::SimdReduceCmp              0      0.00%     19.55% # Type of FU issued
system.cpu.iq.FU_type_0::SimdFloatReduceAdd            0      0.00%     19.55% # Type of FU issued
system.cpu.iq.FU_type_0::SimdFloatReduceCmp            0      0.00%     19.55% # Type of FU issued
system.cpu.iq.FU_type_0::SimdAes                    0      0.00%     19.55% # Type of FU issued
system.cpu.iq.FU_type_0::SimdAesMix                 0      0.00%     19.55% # Type of FU issued
system.cpu.iq.FU_type_0::SimdSha1Hash               0      0.00%     19.55% # Type of FU issued
system.cpu.iq.FU_type_0::SimdSha1Hash2              0      0.00%     19.55% # Type of FU issued
system.cpu.iq.FU_type_0::SimdSha256Hash             0      0.00%     19.55% # Type of FU issued
system.cpu.iq.FU_type_0::SimdSha256Hash2            0      0.00%     19.55% # Type of FU issued
system.cpu.iq.FU_type_0::SimdShaSigma2              0      0.00%     19.55% # Type of FU issued
system.cpu.iq.FU_type_0::SimdShaSigma3              0      0.00%     19.55% # Type of FU issued
system.cpu.iq.FU_type_0::SimdPredAlu                0      0.00%     19.55% # Type of FU issued
system.cpu.iq.FU_type_0::MemRead               234743     79.66%     99.22% # Type of FU issued
system.cpu.iq.FU_type_0::MemWrite                1653      0.56%     99.78% # Type of FU issued
system.cpu.iq.FU_type_0::FloatMemRead             105      0.04%     99.82% # Type of FU issued
system.cpu.iq.FU_type_0::FloatMemWrite            544      0.18%    100.00% # Type of FU issued
system.cpu.iq.FU_type_0::IprAccess                  0      0.00%    100.00% # Type of FU issued
system.cpu.iq.FU_type_0::InstPrefetch               0      0.00%    100.00% # Type of FU issued
system.cpu.iq.FU_type_0::total                 294663                       # Type of FU issued
system.cpu.iq.fp_alu_accesses                    1507                       # Number of floating point alu accesses
system.cpu.iq.fp_inst_queue_reads                2965                       # Number of floating instruction queue reads
system.cpu.iq.fp_inst_queue_wakeup_accesses         1413                       # Number of floating instruction queue wakeup accesses
system.cpu.iq.fp_inst_queue_writes               1737                       # Number of floating instruction queue writes
system.cpu.iq.fu_busy_cnt                       50707                       # FU busy when requested
system.cpu.iq.fu_busy_rate                   0.172085                       # FU busy rate (busy events/executed inst)
system.cpu.iq.fu_full::No_OpClass                   0      0.00%      0.00% # attempts to use FU when none available
system.cpu.iq.fu_full::IntAlu                     213      0.42%      0.42% # attempts to use FU when none available
system.cpu.iq.fu_full::IntMult                      0      0.00%      0.42% # attempts to use FU when none available
system.cpu.iq.fu_full::IntDiv                       0      0.00%      0.42% # attempts to use FU when none available
system.cpu.iq.fu_full::FloatAdd                     0      0.00%      0.42% # attempts to use FU when none available
system.cpu.iq.fu_full::FloatCmp                     0      0.00%      0.42% # attempts to use FU when none available
system.cpu.iq.fu_full::FloatCvt                     0      0.00%      0.42% # attempts to use FU when none available
system.cpu.iq.fu_full::FloatMult                    0      0.00%      0.42% # attempts to use FU when none available
system.cpu.iq.fu_full::FloatMultAcc                 0      0.00%      0.42% # attempts to use FU when none available
system.cpu.iq.fu_full::FloatDiv                     0      0.00%      0.42% # attempts to use FU when none available
system.cpu.iq.fu_full::FloatMisc                    0      0.00%      0.42% # attempts to use FU when none available
system.cpu.iq.fu_full::FloatSqrt                    0      0.00%      0.42% # attempts to use FU when none available
system.cpu.iq.fu_full::SimdAdd                      0      0.00%      0.42% # attempts to use FU when none available
system.cpu.iq.fu_full::SimdAddAcc                   0      0.00%      0.42% # attempts to use FU when none available
system.cpu.iq.fu_full::SimdAlu                     11      0.02%      0.44% # attempts to use FU when none available
system.cpu.iq.fu_full::SimdCmp                      0      0.00%      0.44% # attempts to use FU when none available
system.cpu.iq.fu_full::SimdCvt                      5      0.01%      0.45% # attempts to use FU when none available
system.cpu.iq.fu_full::SimdMisc                     5      0.01%      0.46% # attempts to use FU when none available
system.cpu.iq.fu_full::SimdMult                     0      0.00%      0.46% # attempts to use FU when none available
system.cpu.iq.fu_full::SimdMultAcc                  0      0.00%      0.46% # attempts to use FU when none available
system.cpu.iq.fu_full::SimdShift                    0      0.00%      0.46% # attempts to use FU when none available
system.cpu.iq.fu_full::SimdShiftAcc                 0      0.00%      0.46% # attempts to use FU when none available
system.cpu.iq.fu_full::SimdDiv                      0      0.00%      0.46% # attempts to use FU when none available
system.cpu.iq.fu_full::SimdSqrt                     0      0.00%      0.46% # attempts to use FU when none available
system.cpu.iq.fu_full::SimdFloatAdd                 0      0.00%      0.46% # attempts to use FU when none available
system.cpu.iq.fu_full::SimdFloatAlu                 0      0.00%      0.46% # attempts to use FU when none available
system.cpu.iq.fu_full::SimdFloatCmp                 0      0.00%      0.46% # attempts to use FU when none available
system.cpu.iq.fu_full::SimdFloatCvt                 0      0.00%      0.46% # attempts to use FU when none available
system.cpu.iq.fu_full::SimdFloatDiv                 0      0.00%      0.46% # attempts to use FU when none available
system.cpu.iq.fu_full::SimdFloatMisc                0      0.00%      0.46% # attempts to use FU when none available
system.cpu.iq.fu_full::SimdFloatMult                0      0.00%      0.46% # attempts to use FU when none available
system.cpu.iq.fu_full::SimdFloatMultAcc             0      0.00%      0.46% # attempts to use FU when none available
system.cpu.iq.fu_full::SimdFloatSqrt                0      0.00%      0.46% # attempts to use FU when none available
system.cpu.iq.fu_full::SimdReduceAdd                0      0.00%      0.46% # attempts to use FU when none available
system.cpu.iq.fu_full::SimdReduceAlu                0      0.00%      0.46% # attempts to use FU when none available
system.cpu.iq.fu_full::SimdReduceCmp                0      0.00%      0.46% # attempts to use FU when none available
system.cpu.iq.fu_full::SimdFloatReduceAdd            0      0.00%      0.46% # attempts to use FU when none available
system.cpu.iq.fu_full::SimdFloatReduceCmp            0      0.00%      0.46% # attempts to use FU when none available
system.cpu.iq.fu_full::SimdAes                      0      0.00%      0.46% # attempts to use FU when none available
system.cpu.iq.fu_full::SimdAesMix                   0      0.00%      0.46% # attempts to use FU when none available
system.cpu.iq.fu_full::SimdSha1Hash                 0      0.00%      0.46% # attempts to use FU when none available
system.cpu.iq.fu_full::SimdSha1Hash2                0      0.00%      0.46% # attempts to use FU when none available
system.cpu.iq.fu_full::SimdSha256Hash               0      0.00%      0.46% # attempts to use FU when none available
system.cpu.iq.fu_full::SimdSha256Hash2              0      0.00%      0.46% # attempts to use FU when none available
system.cpu.iq.fu_full::SimdShaSigma2                0      0.00%      0.46% # attempts to use FU when none available
system.cpu.iq.fu_full::SimdShaSigma3                0      0.00%      0.46% # attempts to use FU when none available
system.cpu.iq.fu_full::SimdPredAlu                  0      0.00%      0.46% # attempts to use FU when none available
system.cpu.iq.fu_full::MemRead                  50417     99.43%     99.89% # attempts to use FU when none available
system.cpu.iq.fu_full::MemWrite                    17      0.03%     99.92% # attempts to use FU when none available
system.cpu.iq.fu_full::FloatMemRead                 6      0.01%     99.93% # attempts to use FU when none available
system.cpu.iq.fu_full::FloatMemWrite               33      0.07%    100.00% # attempts to use FU when none available
system.cpu.iq.fu_full::IprAccess                    0      0.00%    100.00% # attempts to use FU when none available
system.cpu.iq.fu_full::InstPrefetch                 0      0.00%    100.00% # attempts to use FU when none available
system.cpu.iq.int_alu_accesses                 343219                       # Number of integer alu accesses
system.cpu.iq.int_inst_queue_reads             791864                       # Number of integer instruction queue reads
system.cpu.iq.int_inst_queue_wakeup_accesses        76315                       # Number of integer instruction queue wakeup accesses
system.cpu.iq.int_inst_queue_writes             94807                       # Number of integer instruction queue writes
system.cpu.iq.iqInstsAdded                      82818                       # Number of instructions added to the IQ (excludes non-spec)
system.cpu.iq.iqInstsIssued                    294663                       # Number of instructions issued
system.cpu.iq.iqSquashedInstsExamined           13710                       # Number of squashed instructions iterated over during squash; mainly for profiling
system.cpu.iq.iqSquashedInstsIssued                91                       # Number of squashed instructions issued
system.cpu.iq.iqSquashedOperandsExamined        16782                       # Number of squashed operands that are examined and possibly removed from graph
system.cpu.iq.issued_per_cycle::samples        154711                       # Number of insts issued each cycle
system.cpu.iq.issued_per_cycle::mean         1.904603                       # Number of insts issued each cycle
system.cpu.iq.issued_per_cycle::stdev        2.138684                       # Number of insts issued each cycle
system.cpu.iq.issued_per_cycle::underflows            0      0.00%      0.00% # Number of insts issued each cycle
system.cpu.iq.issued_per_cycle::0               75239     48.63%     48.63% # Number of insts issued each cycle
system.cpu.iq.issued_per_cycle::1               11197      7.24%     55.87% # Number of insts issued each cycle
system.cpu.iq.issued_per_cycle::2                6727      4.35%     60.22% # Number of insts issued each cycle
system.cpu.iq.issued_per_cycle::3                4423      2.86%     63.08% # Number of insts issued each cycle
system.cpu.iq.issued_per_cycle::4               36034     23.29%     86.37% # Number of insts issued each cycle
system.cpu.iq.issued_per_cycle::5               17076     11.04%     97.40% # Number of insts issued each cycle
system.cpu.iq.issued_per_cycle::6                1967      1.27%     98.68% # Number of insts issued each cycle
system.cpu.iq.issued_per_cycle::7                 959      0.62%     99.30% # Number of insts issued each cycle
system.cpu.iq.issued_per_cycle::8                1089      0.70%    100.00% # Number of insts issued each cycle
system.cpu.iq.issued_per_cycle::overflows            0      0.00%    100.00% # Number of insts issued each cycle
system.cpu.iq.issued_per_cycle::min_value            0                       # Number of insts issued each cycle
system.cpu.iq.issued_per_cycle::max_value            8                       # Number of insts issued each cycle
system.cpu.iq.issued_per_cycle::total          154711                       # Number of insts issued each cycle
system.cpu.iq.rate                           1.671676                       # Inst issue rate
system.cpu.iq.vec_alu_accesses                      0                       # Number of vector alu accesses
system.cpu.iq.vec_inst_queue_reads                  0                       # Number of vector instruction queue reads
system.cpu.iq.vec_inst_queue_wakeup_accesses            0                       # Number of vector instruction queue wakeup accesses
system.cpu.iq.vec_inst_queue_writes                 0                       # Number of vector instruction queue writes
system.cpu.memDep0.conflictingLoads                24                       # Number of conflicting loads.
system.cpu.memDep0.conflictingStores               15                       # Number of conflicting stores.
system.cpu.memDep0.insertedLoads                19819                       # Number of loads inserted to the mem dependence unit.
system.cpu.memDep0.insertedStores                2573                       # Number of stores inserted to the mem dependence unit.
system.cpu.misc_regfile_reads                  247233                       # number of misc regfile reads
system.cpu.numCycles                           176268                       # number of cpu cycles simulated
system.cpu.numWorkItemsCompleted                    0                       # number of work items this cpu completed
system.cpu.numWorkItemsStarted                      0                       # number of work items this cpu started
system.cpu.timesIdled                             308                       # Number of times that the entire CPU went into an idle state and unscheduled itself
system.cpu.workload.numSyscalls                    10                       # Number of system calls
system.l2bus.snoop_filter.hit_multi_requests            0                       # Number of requests hitting in the snoop filter with multiple (>1) holders of the requested data.
system.l2bus.snoop_filter.hit_multi_snoops            0                       # Number of snoops hitting in the snoop filter with multiple (>1) holders of the requested data.
system.l2bus.snoop_filter.hit_single_requests        16445                       # Number of requests hitting in the snoop filter with a single holder of the requested data.
system.l2bus.snoop_filter.hit_single_snoops            0                       # Number of snoops hitting in the snoop filter with a single holder of the requested data.
system.l2bus.snoop_filter.tot_requests          33573                       # Total number of requests made to the snoop filter.
system.l2bus.snoop_filter.tot_snoops                0                       # Total number of snoops made to the snoop filter.
system.membus.snoop_filter.hit_multi_requests            0                       # Number of requests hitting in the snoop filter with multiple (>1) holders of the requested data.
system.membus.snoop_filter.hit_multi_snoops            0                       # Number of snoops hitting in the snoop filter with multiple (>1) holders of the requested data.
system.membus.snoop_filter.hit_single_requests            0                       # Number of requests hitting in the snoop filter with a single holder of the requested data.
system.membus.snoop_filter.hit_single_snoops            0                       # Number of snoops hitting in the snoop filter with a single holder of the requested data.
system.membus.snoop_filter.tot_requests          1739                       # Total number of requests made to the snoop filter.
system.membus.snoop_filter.tot_snoops               0                       # Total number of snoops made to the snoop filter.
system.clk_domain.clock                          1000                       # Clock period in ticks
system.clk_domain.voltage_domain.voltage            1                       # Voltage in Volts
system.cpu.branchPred.lookups                    6498                       # Number of BP lookups
system.cpu.branchPred.condPredicted              5352                       # Number of conditional branches predicted
system.cpu.branchPred.condIncorrect               748                       # Number of conditional branches incorrect
system.cpu.branchPred.BTBLookups                 4167                       # Number of BTB lookups
system.cpu.branchPred.BTBHits                    3454                       # Number of BTB hits
system.cpu.branchPred.BTBHitPct             82.889369                       # BTB Hit Percentage
system.cpu.branchPred.RASUsed                     296                       # Number of times the RAS was used to get a target.
system.cpu.branchPred.RASIncorrect                  0                       # Number of incorrect RAS predictions.
system.cpu.branchPred.indirectLookups             263                       # Number of indirect predictor lookups.
system.cpu.branchPred.indirectHits                  5                       # Number of indirect target hits.
system.cpu.branchPred.indirectMisses              258                       # Number of indirect misses.
system.cpu.branchPred.indirectMispredicted           84                       # Number of mispredicted indirect branches.
system.cpu.commit.commitSquashedInsts           13607                       # The number of squashed insts skipped by commit
system.cpu.commit.branchMispredicts               549                       # The number of times a branch was mispredicted
system.cpu.commit.numCommittedDist::samples       152608                       # Number of insts commited each cycle
system.cpu.commit.numCommittedDist::mean     0.452755                       # Number of insts commited each cycle
system.cpu.commit.numCommittedDist::stdev     1.300452                       # Number of insts commited each cycle
system.cpu.commit.numCommittedDist::underflows            0      0.00%      0.00% # Number of insts commited each cycle
system.cpu.commit.numCommittedDist::0          123193     80.73%     80.73% # Number of insts commited each cycle
system.cpu.commit.numCommittedDist::1           14400      9.44%     90.16% # Number of insts commited each cycle
system.cpu.commit.numCommittedDist::2            7937      5.20%     95.36% # Number of insts commited each cycle
system.cpu.commit.numCommittedDist::3            1201      0.79%     96.15% # Number of insts commited each cycle
system.cpu.commit.numCommittedDist::4            2600      1.70%     97.85% # Number of insts commited each cycle
system.cpu.commit.numCommittedDist::5             278      0.18%     98.03% # Number of insts commited each cycle
system.cpu.commit.numCommittedDist::6             200      0.13%     98.17% # Number of insts commited each cycle
system.cpu.commit.numCommittedDist::7             165      0.11%     98.27% # Number of insts commited each cycle
system.cpu.commit.numCommittedDist::8            2634      1.73%    100.00% # Number of insts commited each cycle
system.cpu.commit.numCommittedDist::overflows            0      0.00%    100.00% # Number of insts commited each cycle
system.cpu.commit.numCommittedDist::min_value            0                       # Number of insts commited each cycle
system.cpu.commit.numCommittedDist::max_value            8                       # Number of insts commited each cycle
system.cpu.commit.numCommittedDist::total       152608                       # Number of insts commited each cycle
system.cpu.commit.instsCommitted                33790                       # Number of instructions committed
system.cpu.commit.opsCommitted                  69094                       # Number of ops (including micro ops) committed
system.cpu.commit.memRefs                       19676                       # Number of memory references committed
system.cpu.commit.loads                         18049                       # Number of loads committed
system.cpu.commit.amos                              0                       # Number of atomic instructions committed
system.cpu.commit.membars                           0                       # Number of memory barriers committed
system.cpu.commit.branches                       3962                       # Number of branches committed
system.cpu.commit.vector                            0                       # Number of committed Vector instructions.
system.cpu.commit.floating                       1267                       # Number of committed floating point instructions.
system.cpu.commit.integer                       68247                       # Number of committed integer instructions.
system.cpu.commit.functionCalls                   147                       # Number of function calls committed.
system.cpu.commit.committedInstType_0::No_OpClass          319      0.46%      0.46% # Class of committed instruction
system.cpu.commit.committedInstType_0::IntAlu        48509     70.21%     70.67% # Class of committed instruction
system.cpu.commit.committedInstType_0::IntMult            5      0.01%     70.68% # Class of committed instruction
system.cpu.commit.committedInstType_0::IntDiv           21      0.03%     70.71% # Class of committed instruction
system.cpu.commit.committedInstType_0::FloatAdd          135      0.20%     70.90% # Class of committed instruction
system.cpu.commit.committedInstType_0::FloatCmp            0      0.00%     70.90% # Class of committed instruction
system.cpu.commit.committedInstType_0::FloatCvt            0      0.00%     70.90% # Class of committed instruction
system.cpu.commit.committedInstType_0::FloatMult            0      0.00%     70.90% # Class of committed instruction
system.cpu.commit.committedInstType_0::FloatMultAcc            0      0.00%     70.90% # Class of committed instruction
system.cpu.commit.committedInstType_0::FloatDiv            0      0.00%     70.90% # Class of committed instruction
system.cpu.commit.committedInstType_0::FloatMisc            0      0.00%     70.90% # Class of committed instruction
system.cpu.commit.committedInstType_0::FloatSqrt            0      0.00%     70.90% # Class of committed instruction
system.cpu.commit.committedInstType_0::SimdAdd            0      0.00%     70.90% # Class of committed instruction
system.cpu.commit.committedInstType_0::SimdAddAcc            0      0.00%     70.90% # Class of committed instruction
system.cpu.commit.committedInstType_0::SimdAlu          100      0.14%     71.05% # Class of committed instruction
system.cpu.commit.committedInstType_0::SimdCmp           12      0.02%     71.06% # Class of committed instruction
system.cpu.commit.committedInstType_0::SimdCvt           74      0.11%     71.17% # Class of committed instruction
system.cpu.commit.committedInstType_0::SimdMisc          243      0.35%     71.52% # Class of committed instruction
system.cpu.commit.committedInstType_0::SimdMult            0      0.00%     71.52% # Class of committed instruction
system.cpu.commit.committedInstType_0::SimdMultAcc            0      0.00%     71.52% # Class of committed instruction
system.cpu.commit.committedInstType_0::SimdShift            0      0.00%     71.52% # Class of committed instruction
system.cpu.commit.committedInstType_0::SimdShiftAcc            0      0.00%     71.52% # Class of committed instruction
system.cpu.commit.committedInstType_0::SimdDiv            0      0.00%     71.52% # Class of committed instruction
system.cpu.commit.committedInstType_0::SimdSqrt            0      0.00%     71.52% # Class of committed instruction
system.cpu.commit.committedInstType_0::SimdFloatAdd            0      0.00%     71.52% # Class of committed instruction
system.cpu.commit.committedInstType_0::SimdFloatAlu            0      0.00%     71.52% # Class of committed instruction
system.cpu.commit.committedInstType_0::SimdFloatCmp            0      0.00%     71.52% # Class of committed instruction
system.cpu.commit.committedInstType_0::SimdFloatCvt            0      0.00%     71.52% # Class of committed instruction
system.cpu.commit.committedInstType_0::SimdFloatDiv            0      0.00%     71.52% # Class of committed instruction
system.cpu.commit.committedInstType_0::SimdFloatMisc            0      0.00%     71.52% # Class of committed instruction
system.cpu.commit.committedInstType_0::SimdFloatMult            0      0.00%     71.52% # Class of committed instruction
system.cpu.commit.committedInstType_0::SimdFloatMultAcc            0      0.00%     71.52% # Class of committed instruction
system.cpu.commit.committedInstType_0::SimdFloatSqrt            0      0.00%     71.52% # Class of committed instruction
system.cpu.commit.committedInstType_0::SimdReduceAdd            0      0.00%     71.52% # Class of committed instruction
system.cpu.commit.committedInstType_0::SimdReduceAlu            0      0.00%     71.52% # Class of committed instruction
system.cpu.commit.committedInstType_0::SimdReduceCmp            0      0.00%     71.52% # Class of committed instruction
system.cpu.commit.committedInstType_0::SimdFloatReduceAdd            0      0.00%     71.52% # Class of committed instruction
system.cpu.commit.committedInstType_0::SimdFloatReduceCmp            0      0.00%     71.52% # Class of committed instruction
system.cpu.commit.committedInstType_0::SimdAes            0      0.00%     71.52% # Class of committed instruction
system.cpu.commit.committedInstType_0::SimdAesMix            0      0.00%     71.52% # Class of committed instruction
system.cpu.commit.committedInstType_0::SimdSha1Hash            0      0.00%     71.52% # Class of committed instruction
system.cpu.commit.committedInstType_0::SimdSha1Hash2            0      0.00%     71.52% # Class of committed instruction
system.cpu.commit.committedInstType_0::SimdSha256Hash            0      0.00%     71.52% # Class of committed instruction
system.cpu.commit.committedInstType_0::SimdSha256Hash2            0      0.00%     71.52% # Class of committed instruction
system.cpu.commit.committedInstType_0::SimdShaSigma2            0      0.00%     71.52% # Class of committed instruction
system.cpu.commit.committedInstType_0::SimdShaSigma3            0      0.00%     71.52% # Class of committed instruction
system.cpu.commit.committedInstType_0::SimdPredAlu            0      0.00%     71.52% # Class of committed instruction
system.cpu.commit.committedInstType_0::MemRead        17971     26.01%     97.53% # Class of committed instruction
system.cpu.commit.committedInstType_0::MemWrite         1161      1.68%     99.21% # Class of committed instruction
system.cpu.commit.committedInstType_0::FloatMemRead           78      0.11%     99.33% # Class of committed instruction
system.cpu.commit.committedInstType_0::FloatMemWrite          466      0.67%    100.00% # Class of committed instruction
system.cpu.commit.committedInstType_0::IprAccess            0      0.00%    100.00% # Class of committed instruction
system.cpu.commit.committedInstType_0::InstPrefetch            0      0.00%    100.00% # Class of committed instruction
system.cpu.commit.committedInstType_0::total        69094                       # Class of committed instruction
system.cpu.commit.commitEligibleSamples          2634                       # number cycles where commit BW limit reached
system.cpu.dcache.demand_hits::.cpu.data         3798                       # number of demand (read+write) hits
system.cpu.dcache.demand_hits::total             3798                       # number of demand (read+write) hits
system.cpu.dcache.overall_hits::.cpu.data         3798                       # number of overall hits
system.cpu.dcache.overall_hits::total            3798                       # number of overall hits
system.cpu.dcache.demand_misses::.cpu.data        16852                       # number of demand (read+write) misses
system.cpu.dcache.demand_misses::total          16852                       # number of demand (read+write) misses
system.cpu.dcache.overall_misses::.cpu.data        16852                       # number of overall misses
system.cpu.dcache.overall_misses::total         16852                       # number of overall misses
system.cpu.dcache.demand_miss_latency::.cpu.data    552320999                       # number of demand (read+write) miss cycles
system.cpu.dcache.demand_miss_latency::total    552320999                       # number of demand (read+write) miss cycles
system.cpu.dcache.overall_miss_latency::.cpu.data    552320999                       # number of overall miss cycles
system.cpu.dcache.overall_miss_latency::total    552320999                       # number of overall miss cycles
system.cpu.dcache.demand_accesses::.cpu.data        20650                       # number of demand (read+write) accesses
system.cpu.dcache.demand_accesses::total        20650                       # number of demand (read+write) accesses
system.cpu.dcache.overall_accesses::.cpu.data        20650                       # number of overall (read+write) accesses
system.cpu.dcache.overall_accesses::total        20650                       # number of overall (read+write) accesses
system.cpu.dcache.demand_miss_rate::.cpu.data     0.816077                       # miss rate for demand accesses
system.cpu.dcache.demand_miss_rate::total     0.816077                       # miss rate for demand accesses
system.cpu.dcache.overall_miss_rate::.cpu.data     0.816077                       # miss rate for overall accesses
system.cpu.dcache.overall_miss_rate::total     0.816077                       # miss rate for overall accesses
system.cpu.dcache.demand_avg_miss_latency::.cpu.data 32774.804118                       # average overall miss latency
system.cpu.dcache.demand_avg_miss_latency::total 32774.804118                       # average overall miss latency
system.cpu.dcache.overall_avg_miss_latency::.cpu.data 32774.804118                       # average overall miss latency
system.cpu.dcache.overall_avg_miss_latency::total 32774.804118                       # average overall miss latency
system.cpu.dcache.blocked_cycles::no_mshrs       102128                       # number of cycles access was blocked
system.cpu.dcache.blocked_cycles::no_targets            0                       # number of cycles access was blocked
system.cpu.dcache.blocked::no_mshrs             16408                       # number of cycles access was blocked
system.cpu.dcache.blocked::no_targets               0                       # number of cycles access was blocked
system.cpu.dcache.avg_blocked_cycles::no_mshrs     6.224281                       # average number of cycles each access was blocked
system.cpu.dcache.avg_blocked_cycles::no_targets          nan                       # average number of cycles each access was blocked
system.cpu.dcache.writebacks::.writebacks           34                       # number of writebacks
system.cpu.dcache.writebacks::total                34                       # number of writebacks
system.cpu.dcache.demand_mshr_hits::.cpu.data          215                       # number of demand (read+write) MSHR hits
system.cpu.dcache.demand_mshr_hits::total          215                       # number of demand (read+write) MSHR hits
system.cpu.dcache.overall_mshr_hits::.cpu.data          215                       # number of overall MSHR hits
system.cpu.dcache.overall_mshr_hits::total          215                       # number of overall MSHR hits
system.cpu.dcache.demand_mshr_misses::.cpu.data        16637                       # number of demand (read+write) MSHR misses
system.cpu.dcache.demand_mshr_misses::total        16637                       # number of demand (read+write) MSHR misses
system.cpu.dcache.overall_mshr_misses::.cpu.data        16637                       # number of overall MSHR misses
system.cpu.dcache.overall_mshr_misses::total        16637                       # number of overall MSHR misses
system.cpu.dcache.demand_mshr_miss_latency::.cpu.data    502574999                       # number of demand (read+write) MSHR miss cycles
system.cpu.dcache.demand_mshr_miss_latency::total    502574999                       # number of demand (read+write) MSHR miss cycles
system.cpu.dcache.overall_mshr_miss_latency::.cpu.data    502574999                       # number of overall MSHR miss cycles
system.cpu.dcache.overall_mshr_miss_latency::total    502574999                       # number of overall MSHR miss cycles
system.cpu.dcache.demand_mshr_miss_rate::.cpu.data     0.805666                       # mshr miss rate for demand accesses
system.cpu.dcache.demand_mshr_miss_rate::total     0.805666                       # mshr miss rate for demand accesses
system.cpu.dcache.overall_mshr_miss_rate::.cpu.data     0.805666                       # mshr miss rate for overall accesses
system.cpu.dcache.overall_mshr_miss_rate::total     0.805666                       # mshr miss rate for overall accesses
system.cpu.dcache.demand_avg_mshr_miss_latency::.cpu.data 30208.270662                       # average overall mshr miss latency
system.cpu.dcache.demand_avg_mshr_miss_latency::total 30208.270662                       # average overall mshr miss latency
system.cpu.dcache.overall_avg_mshr_miss_latency::.cpu.data 30208.270662                       # average overall mshr miss latency
system.cpu.dcache.overall_avg_mshr_miss_latency::total 30208.270662                       # average overall mshr miss latency
system.cpu.dcache.replacements                  16192                       # number of replacements
system.cpu.dcache.ReadReq_hits::.cpu.data         2291                       # number of ReadReq hits
system.cpu.dcache.ReadReq_hits::total            2291                       # number of ReadReq hits
system.cpu.dcache.ReadReq_misses::.cpu.data        16731                       # number of ReadReq misses
system.cpu.dcache.ReadReq_misses::total         16731                       # number of ReadReq misses
system.cpu.dcache.ReadReq_miss_latency::.cpu.data    539941000                       # number of ReadReq miss cycles
system.cpu.dcache.ReadReq_miss_latency::total    539941000                       # number of ReadReq miss cycles
system.cpu.dcache.ReadReq_accesses::.cpu.data        19022                       # number of ReadReq accesses(hits+misses)
system.cpu.dcache.ReadReq_accesses::total        19022                       # number of ReadReq accesses(hits+misses)
system.cpu.dcache.ReadReq_miss_rate::.cpu.data     0.879561                       # miss rate for ReadReq accesses
system.cpu.dcache.ReadReq_miss_rate::total     0.879561                       # miss rate for ReadReq accesses
system.cpu.dcache.ReadReq_avg_miss_latency::.cpu.data 32271.890503                       # average ReadReq miss latency
system.cpu.dcache.ReadReq_avg_miss_latency::total 32271.890503                       # average ReadReq miss latency
system.cpu.dcache.ReadReq_mshr_hits::.cpu.data          213                       # number of ReadReq MSHR hits
system.cpu.dcache.ReadReq_mshr_hits::total          213                       # number of ReadReq MSHR hits
system.cpu.dcache.ReadReq_mshr_misses::.cpu.data        16518                       # number of ReadReq MSHR misses
system.cpu.dcache.ReadReq_mshr_misses::total        16518                       # number of ReadReq MSHR misses
system.cpu.dcache.ReadReq_mshr_miss_latency::.cpu.data    490452000                       # number of ReadReq MSHR miss cycles
system.cpu.dcache.ReadReq_mshr_miss_latency::total    490452000                       # number of ReadReq MSHR miss cycles
system.cpu.dcache.ReadReq_mshr_miss_rate::.cpu.data     0.868363                       # mshr miss rate for ReadReq accesses
system.cpu.dcache.ReadReq_mshr_miss_rate::total     0.868363                       # mshr miss rate for ReadReq accesses
system.cpu.dcache.ReadReq_avg_mshr_miss_latency::.cpu.data 29691.972394                       # average ReadReq mshr miss latency
system.cpu.dcache.ReadReq_avg_mshr_miss_latency::total 29691.972394                       # average ReadReq mshr miss latency
system.cpu.dcache.WriteReq_hits::.cpu.data         1507                       # number of WriteReq hits
system.cpu.dcache.WriteReq_hits::total           1507                       # number of WriteReq hits
system.cpu.dcache.WriteReq_misses::.cpu.data          121                       # number of WriteReq misses
system.cpu.dcache.WriteReq_misses::total          121                       # number of WriteReq misses
system.cpu.dcache.WriteReq_miss_latency::.cpu.data     12379999                       # number of WriteReq miss cycles
system.cpu.dcache.WriteReq_miss_latency::total     12379999                       # number of WriteReq miss cycles
system.cpu.dcache.WriteReq_accesses::.cpu.data         1628                       # number of WriteReq accesses(hits+misses)
system.cpu.dcache.WriteReq_accesses::total         1628                       # number of WriteReq accesses(hits+misses)
system.cpu.dcache.WriteReq_miss_rate::.cpu.data     0.074324                       # miss rate for WriteReq accesses
system.cpu.dcache.WriteReq_miss_rate::total     0.074324                       # miss rate for WriteReq accesses
system.cpu.dcache.WriteReq_avg_miss_latency::.cpu.data 102314.041322                       # average WriteReq miss latency
system.cpu.dcache.WriteReq_avg_miss_latency::total 102314.041322                       # average WriteReq miss latency
system.cpu.dcache.WriteReq_mshr_hits::.cpu.data            2                       # number of WriteReq MSHR hits
system.cpu.dcache.WriteReq_mshr_hits::total            2                       # number of WriteReq MSHR hits
system.cpu.dcache.WriteReq_mshr_misses::.cpu.data          119                       # number of WriteReq MSHR misses
system.cpu.dcache.WriteReq_mshr_misses::total          119                       # number of WriteReq MSHR misses
system.cpu.dcache.WriteReq_mshr_miss_latency::.cpu.data     12122999                       # number of WriteReq MSHR miss cycles
system.cpu.dcache.WriteReq_mshr_miss_latency::total     12122999                       # number of WriteReq MSHR miss cycles
system.cpu.dcache.WriteReq_mshr_miss_rate::.cpu.data     0.073096                       # mshr miss rate for WriteReq accesses
system.cpu.dcache.WriteReq_mshr_miss_rate::total     0.073096                       # mshr miss rate for WriteReq accesses
system.cpu.dcache.WriteReq_avg_mshr_miss_latency::.cpu.data 101873.941176                       # average WriteReq mshr miss latency
system.cpu.dcache.WriteReq_avg_mshr_miss_latency::total 101873.941176                       # average WriteReq mshr miss latency
system.cpu.dcache.power_state.pwrStateResidencyTicks::UNDEFINED    176267000                       # Cumulative time (in ticks) in various power states
system.cpu.dcache.tags.tagsinuse           316.214669                       # Cycle average of tags in use
system.cpu.dcache.tags.total_refs               20435                       # Total number of references to valid blocks.
system.cpu.dcache.tags.sampled_refs             16637                       # Sample count of references to valid blocks.
system.cpu.dcache.tags.avg_refs              1.228286                       # Average number of references to valid blocks.
system.cpu.dcache.tags.warmup_cycle            222000                       # Cycle when the warmup percentage was hit.
system.cpu.dcache.tags.occ_blocks::.cpu.data   316.214669                       # Average occupied blocks per requestor
system.cpu.dcache.tags.occ_percent::.cpu.data     0.308803                       # Average percentage of cache occupancy
system.cpu.dcache.tags.occ_percent::total     0.308803                       # Average percentage of cache occupancy
system.cpu.dcache.tags.occ_task_id_blocks::1024          445                       # Occupied blocks per task id
system.cpu.dcache.tags.age_task_id_blocks_1024::0          143                       # Occupied blocks per task id
system.cpu.dcache.tags.age_task_id_blocks_1024::1          125                       # Occupied blocks per task id
system.cpu.dcache.tags.age_task_id_blocks_1024::2          177                       # Occupied blocks per task id
system.cpu.dcache.tags.occ_task_id_percent::1024     0.434570                       # Percentage of cache occupancy per task id
system.cpu.dcache.tags.tag_accesses             57937                       # Number of tag accesses
system.cpu.dcache.tags.data_accesses            57937                       # Number of data accesses
system.cpu.dcache.tags.power_state.pwrStateResidencyTicks::UNDEFINED    176267000                       # Cumulative time (in ticks) in various power states
system.cpu.decode.idleCycles                    17710                       # Number of cycles decode is idle
system.cpu.decode.blockedCycles                124362                       # Number of cycles decode is blocked
system.cpu.decode.runCycles                      5541                       # Number of cycles decode is running
system.cpu.decode.unblockCycles                  6522                       # Number of cycles decode is unblocking
system.cpu.decode.squashCycles                    576                       # Number of cycles decode is squashing
system.cpu.decode.branchResolved                 3523                       # Number of times decode resolved a  branch
system.cpu.decode.branchMispred                   233                       # Number of times decode detected a branch misprediction
system.cpu.decode.decodedInsts                  87099                       # Number of instructions handled by decode
system.cpu.decode.squashedInsts                  1107                       # Number of squashed instructions handled by decode
system.cpu.dtb.rdAccesses                       19340                       # TLB accesses on read requests
system.cpu.dtb.wrAccesses                        2121                       # TLB accesses on write requests
system.cpu.dtb.rdMisses                          2185                       # TLB misses on read requests
system.cpu.dtb.wrMisses                            24                       # TLB misses on write requests
system.cpu.dtb.walker.power_state.pwrStateResidencyTicks::UNDEFINED    176267000                       # Cumulative time (in ticks) in various power states
system.cpu.fetch.icacheStallCycles              20429                       # Number of cycles fetch is stalled on an Icache miss
system.cpu.fetch.insts                          45824                       # Number of instructions fetch has processed
system.cpu.fetch.branches                        6498                       # Number of branches that fetch encountered
system.cpu.fetch.predictedBranches               3755                       # Number of branches that fetch has predicted taken
system.cpu.fetch.cycles                        133264                       # Number of cycles fetch has run and was not squashing or blocked
system.cpu.fetch.squashCycles                    1596                       # Number of cycles fetch has spent squashing
system.cpu.fetch.miscStallCycles                   33                       # Number of cycles fetch has spent waiting on interrupts,or bad addresses, or out of MSHRs
system.cpu.fetch.pendingTrapStallCycles           172                       # Number of stall cycles due to pending traps
system.cpu.fetch.pendingQuiesceStallCycles            4                       # Number of stall cycles due to pending quiesce instructions
system.cpu.fetch.icacheWaitRetryStallCycles           11                       # Number of stall cycles due to full MSHR
system.cpu.fetch.cacheLines                      7449                       # Number of cache lines fetched
system.cpu.fetch.icacheSquashes                   371                       # Number of outstanding Icache misses that were squashed
system.cpu.fetch.nisnDist::samples             154711                       # Number of instructions fetched each cycle (Total)
system.cpu.fetch.nisnDist::mean              0.596519                       # Number of instructions fetched each cycle (Total)
system.cpu.fetch.nisnDist::stdev             1.919929                       # Number of instructions fetched each cycle (Total)
system.cpu.fetch.nisnDist::underflows               0      0.00%      0.00% # Number of instructions fetched each cycle (Total)
system.cpu.fetch.nisnDist::0                   138300     89.39%     89.39% # Number of instructions fetched each cycle (Total)
system.cpu.fetch.nisnDist::1                     1385      0.90%     90.29% # Number of instructions fetched each cycle (Total)
system.cpu.fetch.nisnDist::2                     1184      0.77%     91.05% # Number of instructions fetched each cycle (Total)
system.cpu.fetch.nisnDist::3                     2185      1.41%     92.47% # Number of instructions fetched each cycle (Total)
system.cpu.fetch.nisnDist::4                     1145      0.74%     93.21% # Number of instructions fetched each cycle (Total)
system.cpu.fetch.nisnDist::5                     1042      0.67%     93.88% # Number of instructions fetched each cycle (Total)
system.cpu.fetch.nisnDist::6                     1323      0.86%     94.73% # Number of instructions fetched each cycle (Total)
system.cpu.fetch.nisnDist::7                      924      0.60%     95.33% # Number of instructions fetched each cycle (Total)
system.cpu.fetch.nisnDist::8                     7223      4.67%    100.00% # Number of instructions fetched each cycle (Total)
system.cpu.fetch.nisnDist::overflows                0      0.00%    100.00% # Number of instructions fetched each cycle (Total)
system.cpu.fetch.nisnDist::min_value                0                       # Number of instructions fetched each cycle (Total)
system.cpu.fetch.nisnDist::max_value                8                       # Number of instructions fetched each cycle (Total)
system.cpu.fetch.nisnDist::total               154711                       # Number of instructions fetched each cycle (Total)
system.cpu.fetch.branchRate                  0.036864                       # Number of branch fetches per cycle
system.cpu.fetch.rate                        0.259968                       # Number of inst fetches per cycle
system.cpu.icache.demand_hits::.cpu.inst         6810                       # number of demand (read+write) hits
system.cpu.icache.demand_hits::total             6810                       # number of demand (read+write) hits
system.cpu.icache.overall_hits::.cpu.inst         6810                       # number of overall hits
system.cpu.icache.overall_hits::total            6810                       # number of overall hits
system.cpu.icache.demand_misses::.cpu.inst          639                       # number of demand (read+write) misses
system.cpu.icache.demand_misses::total            639                       # number of demand (read+write) misses
system.cpu.icache.overall_misses::.cpu.inst          639                       # number of overall misses
system.cpu.icache.overall_misses::total           639                       # number of overall misses
system.cpu.icache.demand_miss_latency::.cpu.inst     59067000                       # number of demand (read+write) miss cycles
system.cpu.icache.demand_miss_latency::total     59067000                       # number of demand (read+write) miss cycles
system.cpu.icache.overall_miss_latency::.cpu.inst     59067000                       # number of overall miss cycles
system.cpu.icache.overall_miss_latency::total     59067000                       # number of overall miss cycles
system.cpu.icache.demand_accesses::.cpu.inst         7449                       # number of demand (read+write) accesses
system.cpu.icache.demand_accesses::total         7449                       # number of demand (read+write) accesses
system.cpu.icache.overall_accesses::.cpu.inst         7449                       # number of overall (read+write) accesses
system.cpu.icache.overall_accesses::total         7449                       # number of overall (read+write) accesses
system.cpu.icache.demand_miss_rate::.cpu.inst     0.085783                       # miss rate for demand accesses
system.cpu.icache.demand_miss_rate::total     0.085783                       # miss rate for demand accesses
system.cpu.icache.overall_miss_rate::.cpu.inst     0.085783                       # miss rate for overall accesses
system.cpu.icache.overall_miss_rate::total     0.085783                       # miss rate for overall accesses
system.cpu.icache.demand_avg_miss_latency::.cpu.inst 92436.619718                       # average overall miss latency
system.cpu.icache.demand_avg_miss_latency::total 92436.619718                       # average overall miss latency
system.cpu.icache.overall_avg_miss_latency::.cpu.inst 92436.619718                       # average overall miss latency
system.cpu.icache.overall_avg_miss_latency::total 92436.619718                       # average overall miss latency
system.cpu.icache.blocked_cycles::no_mshrs          190                       # number of cycles access was blocked
system.cpu.icache.blocked_cycles::no_targets            0                       # number of cycles access was blocked
system.cpu.icache.blocked::no_mshrs                 3                       # number of cycles access was blocked
system.cpu.icache.blocked::no_targets               0                       # number of cycles access was blocked
system.cpu.icache.avg_blocked_cycles::no_mshrs    63.333333                       # average number of cycles each access was blocked
system.cpu.icache.avg_blocked_cycles::no_targets          nan                       # average number of cycles each access was blocked
system.cpu.icache.demand_mshr_hits::.cpu.inst          148                       # number of demand (read+write) MSHR hits
system.cpu.icache.demand_mshr_hits::total          148                       # number of demand (read+write) MSHR hits
system.cpu.icache.overall_mshr_hits::.cpu.inst          148                       # number of overall MSHR hits
system.cpu.icache.overall_mshr_hits::total          148                       # number of overall MSHR hits
system.cpu.icache.demand_mshr_misses::.cpu.inst          491                       # number of demand (read+write) MSHR misses
system.cpu.icache.demand_mshr_misses::total          491                       # number of demand (read+write) MSHR misses
system.cpu.icache.overall_mshr_misses::.cpu.inst          491                       # number of overall MSHR misses
system.cpu.icache.overall_mshr_misses::total          491                       # number of overall MSHR misses
system.cpu.icache.demand_mshr_miss_latency::.cpu.inst     48133000                       # number of demand (read+write) MSHR miss cycles
system.cpu.icache.demand_mshr_miss_latency::total     48133000                       # number of demand (read+write) MSHR miss cycles
system.cpu.icache.overall_mshr_miss_latency::.cpu.inst     48133000                       # number of overall MSHR miss cycles
system.cpu.icache.overall_mshr_miss_latency::total     48133000                       # number of overall MSHR miss cycles
system.cpu.icache.demand_mshr_miss_rate::.cpu.inst     0.065915                       # mshr miss rate for demand accesses
system.cpu.icache.demand_mshr_miss_rate::total     0.065915                       # mshr miss rate for demand accesses
system.cpu.icache.overall_mshr_miss_rate::.cpu.inst     0.065915                       # mshr miss rate for overall accesses
system.cpu.icache.overall_mshr_miss_rate::total     0.065915                       # mshr miss rate for overall accesses
system.cpu.icache.demand_avg_mshr_miss_latency::.cpu.inst 98030.549898                       # average overall mshr miss latency
system.cpu.icache.demand_avg_mshr_miss_latency::total 98030.549898                       # average overall mshr miss latency
system.cpu.icache.overall_avg_mshr_miss_latency::.cpu.inst 98030.549898                       # average overall mshr miss latency
system.cpu.icache.overall_avg_mshr_miss_latency::total 98030.549898                       # average overall mshr miss latency
system.cpu.icache.replacements                    253                       # number of replacements
system.cpu.icache.ReadReq_hits::.cpu.inst         6810                       # number of ReadReq hits
system.cpu.icache.ReadReq_hits::total            6810                       # number of ReadReq hits
system.cpu.icache.ReadReq_misses::.cpu.inst          639                       # number of ReadReq misses
system.cpu.icache.ReadReq_misses::total           639                       # number of ReadReq misses
system.cpu.icache.ReadReq_miss_latency::.cpu.inst     59067000                       # number of ReadReq miss cycles
system.cpu.icache.ReadReq_miss_latency::total     59067000                       # number of ReadReq miss cycles
system.cpu.icache.ReadReq_accesses::.cpu.inst         7449                       # number of ReadReq accesses(hits+misses)
system.cpu.icache.ReadReq_accesses::total         7449                       # number of ReadReq accesses(hits+misses)
system.cpu.icache.ReadReq_miss_rate::.cpu.inst     0.085783                       # miss rate for ReadReq accesses
system.cpu.icache.ReadReq_miss_rate::total     0.085783                       # miss rate for ReadReq accesses
system.cpu.icache.ReadReq_avg_miss_latency::.cpu.inst 92436.619718                       # average ReadReq miss latency
system.cpu.icache.ReadReq_avg_miss_latency::total 92436.619718                       # average ReadReq miss latency
system.cpu.icache.ReadReq_mshr_hits::.cpu.inst          148                       # number of ReadReq MSHR hits
system.cpu.icache.ReadReq_mshr_hits::total          148                       # number of ReadReq MSHR hits
system.cpu.icache.ReadReq_mshr_misses::.cpu.inst          491                       # number of ReadReq MSHR misses
system.cpu.icache.ReadReq_mshr_misses::total          491                       # number of ReadReq MSHR misses
system.cpu.icache.ReadReq_mshr_miss_latency::.cpu.inst     48133000                       # number of ReadReq MSHR miss cycles
system.cpu.icache.ReadReq_mshr_miss_latency::total     48133000                       # number of ReadReq MSHR miss cycles
system.cpu.icache.ReadReq_mshr_miss_rate::.cpu.inst     0.065915                       # mshr miss rate for ReadReq accesses
system.cpu.icache.ReadReq_mshr_miss_rate::total     0.065915                       # mshr miss rate for ReadReq accesses
system.cpu.icache.ReadReq_avg_mshr_miss_latency::.cpu.inst 98030.549898                       # average ReadReq mshr miss latency
system.cpu.icache.ReadReq_avg_mshr_miss_latency::total 98030.549898                       # average ReadReq mshr miss latency
system.cpu.icache.power_state.pwrStateResidencyTicks::UNDEFINED    176267000                       # Cumulative time (in ticks) in various power states
system.cpu.icache.tags.tagsinuse           212.605706                       # Cycle average of tags in use
system.cpu.icache.tags.total_refs                7301                       # Total number of references to valid blocks.
system.cpu.icache.tags.sampled_refs               491                       # Sample count of references to valid blocks.
system.cpu.icache.tags.avg_refs             14.869654                       # Average number of references to valid blocks.
system.cpu.icache.tags.warmup_cycle            107000                       # Cycle when the warmup percentage was hit.
system.cpu.icache.tags.occ_blocks::.cpu.inst   212.605706                       # Average occupied blocks per requestor
system.cpu.icache.tags.occ_percent::.cpu.inst     0.830491                       # Average percentage of cache occupancy
system.cpu.icache.tags.occ_percent::total     0.830491                       # Average percentage of cache occupancy
system.cpu.icache.tags.occ_task_id_blocks::1024          238                       # Occupied blocks per task id
system.cpu.icache.tags.age_task_id_blocks_1024::0           39                       # Occupied blocks per task id
system.cpu.icache.tags.age_task_id_blocks_1024::2          199                       # Occupied blocks per task id
system.cpu.icache.tags.occ_task_id_percent::1024     0.929688                       # Percentage of cache occupancy per task id
system.cpu.icache.tags.tag_accesses             15389                       # Number of tag accesses
system.cpu.icache.tags.data_accesses            15389                       # Number of data accesses
system.cpu.icache.tags.power_state.pwrStateResidencyTicks::UNDEFINED    176267000                       # Cumulative time (in ticks) in various power states
system.cpu.interrupts.clk_domain.clock          16000                       # Clock period in ticks
system.cpu.itb.rdAccesses                           0                       # TLB accesses on read requests
system.cpu.itb.wrAccesses                        7483                       # TLB accesses on write requests
system.cpu.itb.rdMisses                             0                       # TLB misses on read requests
system.cpu.itb.wrMisses                            75                       # TLB misses on write requests
system.cpu.itb.walker.power_state.pwrStateResidencyTicks::UNDEFINED    176267000                       # Cumulative time (in ticks) in various power states
system.cpu.lsq0.forwLoads                         189                       # Number of loads that had data forwarded from stores
system.cpu.lsq0.squashedLoads                    1770                       # Number of loads squashed
system.cpu.lsq0.ignoredResponses                    5                       # Number of memory responses ignored because the instruction is squashed
system.cpu.lsq0.memOrderViolation                  16                       # Number of memory ordering violations
system.cpu.lsq0.squashedStores                    946                       # Number of stores squashed
system.cpu.lsq0.rescheduledLoads                    0                       # Number of loads that were rescheduled
system.cpu.lsq0.blockedByCache                  16405                       # Number of times an access to memory failed due to the cache being blocked
system.cpu.power_state.pwrStateResidencyTicks::ON    176267000                       # Cumulative time (in ticks) in various power states
system.cpu.rename.squashCycles                    576                       # Number of cycles rename is squashing
system.cpu.rename.idleCycles                    20206                       # Number of cycles rename is idle
system.cpu.rename.blockCycles                   21952                       # Number of cycles rename is blocking
system.cpu.rename.serializeStallCycles            459                       # count of cycles rename stalledfor serializing inst
system.cpu.rename.runCycles                      9305                       # Number of cycles rename is running
system.cpu.rename.unblockCycles                102213                       # Number of cycles rename is unblocking
system.cpu.rename.renamedInsts                  85338                       # Number of instructions processed by rename
system.cpu.rename.ROBFullEvents                    43                       # Number of times rename has blocked due to ROB full
system.cpu.rename.IQFullEvents                  44606                       # Number of times rename has blocked due to IQ full
system.cpu.rename.LQFullEvents                  93135                       # Number of times rename has blocked due to LQ full
system.cpu.rename.SQFullEvents                   4651                       # Number of times rename has blocked due to SQ full
system.cpu.rename.renamedOperands              132155                       # Number of destination operands rename has renamed
system.cpu.rename.lookups                      195808                       # Number of register rename lookups that rename has made
system.cpu.rename.intLookups                   130545                       # Number of integer rename lookups
system.cpu.rename.fpLookups                      1851                       # Number of floating rename lookups
system.cpu.rename.committedMaps                114357                       # Number of HB maps that are committed
system.cpu.rename.undoneMaps                    17784                       # Number of HB maps that are undone due to squashing
system.cpu.rename.serializing                      13                       # count of serializing insts renamed
system.cpu.rename.tempSerializing                  15                       # count of temporary serializing insts renamed
system.cpu.rename.skidInsts                     39000                       # count of insts added to the skid buffer
system.cpu.rob.reads                           232519                       # The number of ROB reads
system.cpu.rob.writes                          167535                       # The number of ROB writes
system.cpu.thread_0.numInsts                    33790                       # Number of Instructions committed
system.cpu.thread_0.numOps                      69094                       # Number of Ops committed
system.cpu.thread_0.numMemRefs                      0                       # Number of Memory References
system.l2bus.trans_dist::ReadResp               17009                       # Transaction distribution
system.l2bus.trans_dist::WritebackDirty            34                       # Transaction distribution
system.l2bus.trans_dist::CleanEvict             16411                       # Transaction distribution
system.l2bus.trans_dist::ReadExReq                119                       # Transaction distribution
system.l2bus.trans_dist::ReadExResp               119                       # Transaction distribution
system.l2bus.trans_dist::ReadSharedReq          17009                       # Transaction distribution
system.l2bus.pkt_count_system.cpu.icache.mem_side_port::system.l2cache.cpu_side_port         1235                       # Packet count per connected requestor and responder (bytes)
system.l2bus.pkt_count_system.cpu.dcache.mem_side_port::system.l2cache.cpu_side_port        49466                       # Packet count per connected requestor and responder (bytes)
system.l2bus.pkt_count::total                   50701                       # Packet count per connected requestor and responder (bytes)
system.l2bus.pkt_size_system.cpu.icache.mem_side_port::system.l2cache.cpu_side_port        31424                       # Cumulative packet size per connected requestor and responder (bytes)
system.l2bus.pkt_size_system.cpu.dcache.mem_side_port::system.l2cache.cpu_side_port      1066944                       # Cumulative packet size per connected requestor and responder (bytes)
system.l2bus.pkt_size::total                  1098368                       # Cumulative packet size per connected requestor and responder (bytes)
system.l2bus.snoops                                 0                       # Total snoops (count)
system.l2bus.snoopTraffic                           0                       # Total snoop traffic (bytes)
system.l2bus.snoop_fanout::samples              17128                       # Request fanout histogram
system.l2bus.snoop_fanout::mean                     0                       # Request fanout histogram
system.l2bus.snoop_fanout::stdev                    0                       # Request fanout histogram
system.l2bus.snoop_fanout::underflows               0      0.00%      0.00% # Request fanout histogram
system.l2bus.snoop_fanout::0                    17128    100.00%    100.00% # Request fanout histogram
system.l2bus.snoop_fanout::1                        0      0.00%    100.00% # Request fanout histogram
system.l2bus.snoop_fanout::2                        0      0.00%    100.00% # Request fanout histogram
system.l2bus.snoop_fanout::overflows                0      0.00%    100.00% # Request fanout histogram
system.l2bus.snoop_fanout::min_value                0                       # Request fanout histogram
system.l2bus.snoop_fanout::max_value                0                       # Request fanout histogram
system.l2bus.snoop_fanout::total                17128                       # Request fanout histogram
system.l2bus.power_state.pwrStateResidencyTicks::UNDEFINED    176267000                       # Cumulative time (in ticks) in various power states
system.l2bus.reqLayer0.occupancy             33641000                       # Layer occupancy (ticks)
system.l2bus.reqLayer0.utilization               19.1                       # Layer utilization (%)
system.l2bus.respLayer0.occupancy             1473000                       # Layer occupancy (ticks)
system.l2bus.respLayer0.utilization               0.8                       # Layer utilization (%)
system.l2bus.respLayer1.occupancy            49911000                       # Layer occupancy (ticks)
system.l2bus.respLayer1.utilization              28.3                       # Layer utilization (%)
system.l2cache.demand_hits::.cpu.inst              26                       # number of demand (read+write) hits
system.l2cache.demand_hits::.cpu.data           15363                       # number of demand (read+write) hits
system.l2cache.demand_hits::total               15389                       # number of demand (read+write) hits
system.l2cache.overall_hits::.cpu.inst             26                       # number of overall hits
system.l2cache.overall_hits::.cpu.data          15363                       # number of overall hits
system.l2cache.overall_hits::total              15389                       # number of overall hits
system.l2cache.demand_misses::.cpu.inst           465                       # number of demand (read+write) misses
system.l2cache.demand_misses::.cpu.data          1274                       # number of demand (read+write) misses
system.l2cache.demand_misses::total              1739                       # number of demand (read+write) misses
system.l2cache.overall_misses::.cpu.inst          465                       # number of overall misses
system.l2cache.overall_misses::.cpu.data         1274                       # number of overall misses
system.l2cache.overall_misses::total             1739                       # number of overall misses
system.l2cache.demand_miss_latency::.cpu.inst     46112000                       # number of demand (read+write) miss cycles
system.l2cache.demand_miss_latency::.cpu.data    121127000                       # number of demand (read+write) miss cycles
system.l2cache.demand_miss_latency::total    167239000                       # number of demand (read+write) miss cycles
system.l2cache.overall_miss_latency::.cpu.inst     46112000                       # number of overall miss cycles
system.l2cache.overall_miss_latency::.cpu.data    121127000                       # number of overall miss cycles
system.l2cache.overall_miss_latency::total    167239000                       # number of overall miss cycles
system.l2cache.demand_accesses::.cpu.inst          491                       # number of demand (read+write) accesses
system.l2cache.demand_accesses::.cpu.data        16637                       # number of demand (read+write) accesses
system.l2cache.demand_accesses::total           17128                       # number of demand (read+write) accesses
system.l2cache.overall_accesses::.cpu.inst          491                       # number of overall (read+write) accesses
system.l2cache.overall_accesses::.cpu.data        16637                       # number of overall (read+write) accesses
system.l2cache.overall_accesses::total          17128                       # number of overall (read+write) accesses
system.l2cache.demand_miss_rate::.cpu.inst     0.947047                       # miss rate for demand accesses
system.l2cache.demand_miss_rate::.cpu.data     0.076576                       # miss rate for demand accesses
system.l2cache.demand_miss_rate::total       0.101530                       # miss rate for demand accesses
system.l2cache.overall_miss_rate::.cpu.inst     0.947047                       # miss rate for overall accesses
system.l2cache.overall_miss_rate::.cpu.data     0.076576                       # miss rate for overall accesses
system.l2cache.overall_miss_rate::total      0.101530                       # miss rate for overall accesses
system.l2cache.demand_avg_miss_latency::.cpu.inst 99165.591398                       # average overall miss latency
system.l2cache.demand_avg_miss_latency::.cpu.data 95076.138148                       # average overall miss latency
system.l2cache.demand_avg_miss_latency::total 96169.637723                       # average overall miss latency
system.l2cache.overall_avg_miss_latency::.cpu.inst 99165.591398                       # average overall miss latency
system.l2cache.overall_avg_miss_latency::.cpu.data 95076.138148                       # average overall miss latency
system.l2cache.overall_avg_miss_latency::total 96169.637723                       # average overall miss latency
system.l2cache.blocked_cycles::no_mshrs             0                       # number of cycles access was blocked
system.l2cache.blocked_cycles::no_targets            0                       # number of cycles access was blocked
system.l2cache.blocked::no_mshrs                    0                       # number of cycles access was blocked
system.l2cache.blocked::no_targets                  0                       # number of cycles access was blocked
system.l2cache.avg_blocked_cycles::no_mshrs          nan                       # average number of cycles each access was blocked
system.l2cache.avg_blocked_cycles::no_targets          nan                       # average number of cycles each access was blocked
system.l2cache.demand_mshr_misses::.cpu.inst          465                       # number of demand (read+write) MSHR misses
system.l2cache.demand_mshr_misses::.cpu.data         1274                       # number of demand (read+write) MSHR misses
system.l2cache.demand_mshr_misses::total         1739                       # number of demand (read+write) MSHR misses
system.l2cache.overall_mshr_misses::.cpu.inst          465                       # number of overall MSHR misses
[...]
system.mem_ctrl.wrQLenPdf::60                       0                       # What write queue length does an incoming req see
system.mem_ctrl.wrQLenPdf::61                       0                       # What write queue length does an incoming req see
system.mem_ctrl.wrQLenPdf::62                       0                       # What write queue length does an incoming req see
system.mem_ctrl.wrQLenPdf::63                       0                       # What write queue length does an incoming req see
system.mem_ctrl.bytesReadWrQ                        0                       # Total number of bytes read from write queue
system.mem_ctrl.bytesReadSys                   111296                       # Total read bytes from the system interface side
system.mem_ctrl.bytesWrittenSys                     0                       # Total written bytes from the system interface side
system.mem_ctrl.avgRdBWSys                     631.41                       # Average system read bandwidth in MiByte/s
system.mem_ctrl.avgWrBWSys                       0.00                       # Average system write bandwidth in MiByte/s
system.mem_ctrl.totGap                      176147000                       # Total gap between requests
system.mem_ctrl.avgGap                      101292.12                       # Average gap between requests
system.mem_ctrl.requestorReadBytes::.cpu.inst        29760                       # Per-requestor bytes read from memory
system.mem_ctrl.requestorReadBytes::.cpu.data        81536                       # Per-requestor bytes read from memory
system.mem_ctrl.requestorReadRate::.cpu.inst 168834779.056771844625                       # Per-requestor bytes read from memory rate (Bytes/sec)
system.mem_ctrl.requestorReadRate::.cpu.data 462570986.060918927193                       # Per-requestor bytes read from memory rate (Bytes/sec)
system.mem_ctrl.requestorReadAccesses::.cpu.inst          465                       # Per-requestor read serviced memory accesses
system.mem_ctrl.requestorReadAccesses::.cpu.data         1274                       # Per-requestor read serviced memory accesses
system.mem_ctrl.requestorReadTotalLat::.cpu.inst     12934250                       # Per-requestor read total memory access latency
system.mem_ctrl.requestorReadTotalLat::.cpu.data     30299000                       # Per-requestor read total memory access latency
system.mem_ctrl.requestorReadAvgLat::.cpu.inst     27815.59                       # Per-requestor read average memory access latency
system.mem_ctrl.requestorReadAvgLat::.cpu.data     23782.57                       # Per-requestor read average memory access latency
system.mem_ctrl.dram.bytes_read::.cpu.inst        29760                       # Number of bytes read from this memory
system.mem_ctrl.dram.bytes_read::.cpu.data        81536                       # Number of bytes read from this memory
system.mem_ctrl.dram.bytes_read::total         111296                       # Number of bytes read from this memory
system.mem_ctrl.dram.bytes_inst_read::.cpu.inst        29760                       # Number of instructions bytes read from this memory
system.mem_ctrl.dram.bytes_inst_read::total        29760                       # Number of instructions bytes read from this memory
system.mem_ctrl.dram.num_reads::.cpu.inst          465                       # Number of read requests responded to by this memory
system.mem_ctrl.dram.num_reads::.cpu.data         1274                       # Number of read requests responded to by this memory
system.mem_ctrl.dram.num_reads::total            1739                       # Number of read requests responded to by this memory
system.mem_ctrl.dram.bw_read::.cpu.inst     168834779                       # Total read bandwidth from this memory (bytes/s)
system.mem_ctrl.dram.bw_read::.cpu.data     462570986                       # Total read bandwidth from this memory (bytes/s)
system.mem_ctrl.dram.bw_read::total         631405765                       # Total read bandwidth from this memory (bytes/s)
system.mem_ctrl.dram.bw_inst_read::.cpu.inst    168834779                       # Instruction read bandwidth from this memory (bytes/s)
system.mem_ctrl.dram.bw_inst_read::total    168834779                       # Instruction read bandwidth from this memory (bytes/s)
system.mem_ctrl.dram.bw_total::.cpu.inst    168834779                       # Total bandwidth to/from this memory (bytes/s)
system.mem_ctrl.dram.bw_total::.cpu.data    462570986                       # Total bandwidth to/from this memory (bytes/s)
system.mem_ctrl.dram.bw_total::total        631405765                       # Total bandwidth to/from this memory (bytes/s)
system.mem_ctrl.dram.readBursts                  1739                       # Number of DRAM read bursts
system.mem_ctrl.dram.writeBursts                    0                       # Number of DRAM write bursts
system.mem_ctrl.dram.perBankRdBursts::0           156                       # Per bank write bursts
system.mem_ctrl.dram.perBankRdBursts::1           158                       # Per bank write bursts
system.mem_ctrl.dram.perBankRdBursts::2            81                       # Per bank write bursts
system.mem_ctrl.dram.perBankRdBursts::3           120                       # Per bank write bursts
system.mem_ctrl.dram.perBankRdBursts::4            71                       # Per bank write bursts
system.mem_ctrl.dram.perBankRdBursts::5            81                       # Per bank write bursts
system.mem_ctrl.dram.perBankRdBursts::6           135                       # Per bank write bursts
system.mem_ctrl.dram.perBankRdBursts::7           105                       # Per bank write bursts
system.mem_ctrl.dram.perBankRdBursts::8            77                       # Per bank write bursts
system.mem_ctrl.dram.perBankRdBursts::9            75                       # Per bank write bursts
system.mem_ctrl.dram.perBankRdBursts::10           77                       # Per bank write bursts
system.mem_ctrl.dram.perBankRdBursts::11           99                       # Per bank write bursts
system.mem_ctrl.dram.perBankRdBursts::12          128                       # Per bank write bursts
system.mem_ctrl.dram.perBankRdBursts::13           78                       # Per bank write bursts
system.mem_ctrl.dram.perBankRdBursts::14          127                       # Per bank write bursts
system.mem_ctrl.dram.perBankRdBursts::15          171                       # Per bank write bursts
system.mem_ctrl.dram.perBankWrBursts::0             0                       # Per bank write bursts
system.mem_ctrl.dram.perBankWrBursts::1             0                       # Per bank write bursts
system.mem_ctrl.dram.perBankWrBursts::2             0                       # Per bank write bursts
system.mem_ctrl.dram.perBankWrBursts::3             0                       # Per bank write bursts
system.mem_ctrl.dram.perBankWrBursts::4             0                       # Per bank write bursts
system.mem_ctrl.dram.perBankWrBursts::5             0                       # Per bank write bursts
system.mem_ctrl.dram.perBankWrBursts::6             0                       # Per bank write bursts
system.mem_ctrl.dram.perBankWrBursts::7             0                       # Per bank write bursts
system.mem_ctrl.dram.perBankWrBursts::8             0                       # Per bank write bursts
system.mem_ctrl.dram.perBankWrBursts::9             0                       # Per bank write bursts
system.mem_ctrl.dram.perBankWrBursts::10            0                       # Per bank write bursts
system.mem_ctrl.dram.perBankWrBursts::11            0                       # Per bank write bursts
system.mem_ctrl.dram.perBankWrBursts::12            0                       # Per bank write bursts
system.mem_ctrl.dram.perBankWrBursts::13            0                       # Per bank write bursts
system.mem_ctrl.dram.perBankWrBursts::14            0                       # Per bank write bursts
system.mem_ctrl.dram.perBankWrBursts::15            0                       # Per bank write bursts
system.mem_ctrl.dram.totQLat                 10627000                       # Total ticks spent queuing
system.mem_ctrl.dram.totBusLat                8695000                       # Total ticks spent in databus transfers
system.mem_ctrl.dram.totMemAccLat            43233250                       # Total ticks spent from burst creation until serviced by the DRAM
system.mem_ctrl.dram.avgQLat                  6110.98                       # Average queueing delay per DRAM burst
system.mem_ctrl.dram.avgBusLat                5000.00                       # Average bus latency per DRAM burst
system.mem_ctrl.dram.avgMemAccLat            24860.98                       # Average memory access latency per DRAM burst
system.mem_ctrl.dram.readRowHits                 1489                       # Number of row buffer hits during reads
system.mem_ctrl.dram.writeRowHits                   0                       # Number of row buffer hits during writes
system.mem_ctrl.dram.readRowHitRate             85.62                       # Row buffer hit rate for reads
system.mem_ctrl.dram.writeRowHitRate              nan                       # Row buffer hit rate for writes
system.mem_ctrl.dram.bytesPerActivate::samples          241                       # Bytes accessed per row activation
system.mem_ctrl.dram.bytesPerActivate::mean   451.186722                       # Bytes accessed per row activation
system.mem_ctrl.dram.bytesPerActivate::gmean   259.208125                       # Bytes accessed per row activation
system.mem_ctrl.dram.bytesPerActivate::stdev   410.411748                       # Bytes accessed per row activation
system.mem_ctrl.dram.bytesPerActivate::0-127           66     27.39%     27.39% # Bytes accessed per row activation
system.mem_ctrl.dram.bytesPerActivate::128-255           56     23.24%     50.62% # Bytes accessed per row activation
system.mem_ctrl.dram.bytesPerActivate::256-383           16      6.64%     57.26% # Bytes accessed per row activation
system.mem_ctrl.dram.bytesPerActivate::384-511           11      4.56%     61.83% # Bytes accessed per row activation
system.mem_ctrl.dram.bytesPerActivate::512-639            8      3.32%     65.15% # Bytes accessed per row activation
system.mem_ctrl.dram.bytesPerActivate::640-767            7      2.90%     68.05% # Bytes accessed per row activation
system.mem_ctrl.dram.bytesPerActivate::768-895            2      0.83%     68.88% # Bytes accessed per row activation
system.mem_ctrl.dram.bytesPerActivate::896-1023            4      1.66%     70.54% # Bytes accessed per row activation
system.mem_ctrl.dram.bytesPerActivate::1024-1151           71     29.46%    100.00% # Bytes accessed per row activation
system.mem_ctrl.dram.bytesPerActivate::total          241                       # Bytes accessed per row activation
system.mem_ctrl.dram.bytesRead                 111296                       # Total number of bytes read from DRAM
system.mem_ctrl.dram.bytesWritten                   0                       # Total number of bytes written to DRAM
system.mem_ctrl.dram.avgRdBW               631.405765                       # Average DRAM read bandwidth in MiBytes/s
system.mem_ctrl.dram.avgWrBW                        0                       # Average DRAM write bandwidth in MiBytes/s
system.mem_ctrl.dram.peakBW                  12800.00                       # Theoretical peak bandwidth in MiByte/s
system.mem_ctrl.dram.busUtil                     4.93                       # Data bus utilization in percentage
system.mem_ctrl.dram.busUtilRead                 4.93                       # Data bus utilization in percentage for reads
system.mem_ctrl.dram.busUtilWrite                0.00                       # Data bus utilization in percentage for writes
system.mem_ctrl.dram.pageHitRate                85.62                       # Row buffer hit rate, read and write combined
system.mem_ctrl.dram.power_state.pwrStateResidencyTicks::UNDEFINED    176267000                       # Cumulative time (in ticks) in various power states
system.mem_ctrl.dram.rank0.actEnergy          1078140                       # Energy for activate commands per rank (pJ)
system.mem_ctrl.dram.rank0.preEnergy           554070                       # Energy for precharge commands per rank (pJ)
system.mem_ctrl.dram.rank0.readEnergy         6475980                       # Energy for read commands per rank (pJ)
system.mem_ctrl.dram.rank0.writeEnergy              0                       # Energy for write commands per rank (pJ)
system.mem_ctrl.dram.rank0.refreshEnergy 13522080.000000                       # Energy for refresh commands per rank (pJ)
system.mem_ctrl.dram.rank0.actBackEnergy     36218370                       # Energy for active background per rank (pJ)
system.mem_ctrl.dram.rank0.preBackEnergy     37187040                       # Energy for precharge background per rank (pJ)
system.mem_ctrl.dram.rank0.actPowerDownEnergy            0                       # Energy for active power-down per rank (pJ)
system.mem_ctrl.dram.rank0.prePowerDownEnergy            0                       # Energy for precharge power-down per rank (pJ)
system.mem_ctrl.dram.rank0.selfRefreshEnergy            0                       # Energy for self refresh per rank (pJ)
system.mem_ctrl.dram.rank0.totalEnergy       95035680                       # Total energy per rank (pJ)
system.mem_ctrl.dram.rank0.averagePower    539.157528                       # Core power per rank (mW)
system.mem_ctrl.dram.rank0.totalIdleTime            0                       # Total Idle time Per DRAM Rank
system.mem_ctrl.dram.rank0.pwrStateTime::IDLE     96400250                       # Time in different power states
system.mem_ctrl.dram.rank0.pwrStateTime::REF      5720000                       # Time in different power states
system.mem_ctrl.dram.rank0.pwrStateTime::SREF            0                       # Time in different power states
system.mem_ctrl.dram.rank0.pwrStateTime::PRE_PDN            0                       # Time in different power states
system.mem_ctrl.dram.rank0.pwrStateTime::ACT     74146750                       # Time in different power states
system.mem_ctrl.dram.rank0.pwrStateTime::ACT_PDN            0                       # Time in different power states
system.mem_ctrl.dram.rank1.actEnergy           706860                       # Energy for activate commands per rank (pJ)
system.mem_ctrl.dram.rank1.preEnergy           360525                       # Energy for precharge commands per rank (pJ)
system.mem_ctrl.dram.rank1.readEnergy         5940480                       # Energy for read commands per rank (pJ)
system.mem_ctrl.dram.rank1.writeEnergy              0                       # Energy for write commands per rank (pJ)
system.mem_ctrl.dram.rank1.refreshEnergy 13522080.000000                       # Energy for refresh commands per rank (pJ)
system.mem_ctrl.dram.rank1.actBackEnergy     31420680                       # Energy for active background per rank (pJ)
system.mem_ctrl.dram.rank1.preBackEnergy     41227200                       # Energy for precharge background per rank (pJ)
system.mem_ctrl.dram.rank1.actPowerDownEnergy            0                       # Energy for active power-down per rank (pJ)
system.mem_ctrl.dram.rank1.prePowerDownEnergy            0                       # Energy for precharge power-down per rank (pJ)
system.mem_ctrl.dram.rank1.selfRefreshEnergy            0                       # Energy for self refresh per rank (pJ)
system.mem_ctrl.dram.rank1.totalEnergy       93177825                       # Total energy per rank (pJ)
system.mem_ctrl.dram.rank1.averagePower    528.617523                       # Core power per rank (mW)
system.mem_ctrl.dram.rank1.totalIdleTime            0                       # Total Idle time Per DRAM Rank
system.mem_ctrl.dram.rank1.pwrStateTime::IDLE    106774250                       # Time in different power states
system.mem_ctrl.dram.rank1.pwrStateTime::REF      5720000                       # Time in different power states
system.mem_ctrl.dram.rank1.pwrStateTime::SREF            0                       # Time in different power states
system.mem_ctrl.dram.rank1.pwrStateTime::PRE_PDN            0                       # Time in different power states
system.mem_ctrl.dram.rank1.pwrStateTime::ACT     63772750                       # Time in different power states
system.mem_ctrl.dram.rank1.pwrStateTime::ACT_PDN            0                       # Time in different power states
system.mem_ctrl.power_state.pwrStateResidencyTicks::UNDEFINED    176267000                       # Cumulative time (in ticks) in various power states
system.membus.trans_dist::ReadResp               1621                       # Transaction distribution
system.membus.trans_dist::ReadExReq               118                       # Transaction distribution
system.membus.trans_dist::ReadExResp              118                       # Transaction distribution
system.membus.trans_dist::ReadSharedReq          1621                       # Transaction distribution
system.membus.pkt_count_system.l2cache.mem_side_port::system.mem_ctrl.port         3478                       # Packet count per connected requestor and responder (bytes)
system.membus.pkt_count_system.l2cache.mem_side_port::total         3478                       # Packet count per connected requestor and responder (bytes)
system.membus.pkt_count::total                   3478                       # Packet count per connected requestor and responder (bytes)
system.membus.pkt_size_system.l2cache.mem_side_port::system.mem_ctrl.port       111296                       # Cumulative packet size per connected requestor and responder (bytes)
system.membus.pkt_size_system.l2cache.mem_side_port::total       111296                       # Cumulative packet size per connected requestor and responder (bytes)
system.membus.pkt_size::total                  111296                       # Cumulative packet size per connected requestor and responder (bytes)
system.membus.snoops                                0                       # Total snoops (count)
system.membus.snoopTraffic                          0                       # Total snoop traffic (bytes)
system.membus.snoop_fanout::samples              1739                       # Request fanout histogram
system.membus.snoop_fanout::mean                    0                       # Request fanout histogram
system.membus.snoop_fanout::stdev                   0                       # Request fanout histogram
system.membus.snoop_fanout::underflows              0      0.00%      0.00% # Request fanout histogram
system.membus.snoop_fanout::0                    1739    100.00%    100.00% # Request fanout histogram
system.membus.snoop_fanout::1                       0      0.00%    100.00% # Request fanout histogram
system.membus.snoop_fanout::overflows               0      0.00%    100.00% # Request fanout histogram
system.membus.snoop_fanout::min_value               0                       # Request fanout histogram
system.membus.snoop_fanout::max_value               0                       # Request fanout histogram
system.membus.snoop_fanout::total                1739                       # Request fanout histogram
system.membus.power_state.pwrStateResidencyTicks::UNDEFINED    176267000                       # Cumulative time (in ticks) in various power states
system.membus.reqLayer2.occupancy             1739000                       # Layer occupancy (ticks)
system.membus.reqLayer2.utilization               1.0                       # Layer utilization (%)
system.membus.respLayer0.occupancy            9174750                       # Layer occupancy (ticks)
system.membus.respLayer0.utilization              5.2                       # Layer utilization (%)

---------- End Simulation Statistics   ----------
