
---------- Begin Simulation Statistics ----------
final_tick                               1709545166000                       # Number of ticks from beginning of simulation (restored from checkpoints and never reset)
host_inst_rate                                 415276                       # Simulator instruction rate (inst/s)
host_mem_usage                                 664132                       # Number of bytes of host memory used
host_op_rate                                   762083                       # Simulator op (including micro ops) rate (op/s)
host_seconds                                   715.62                       # Real time elapsed on the host
host_tick_rate                             2388888571                       # Simulator tick rate (ticks/s)
sim_freq                                 1000000000000                       # Frequency of simulated ticks
sim_insts                                   297180987                       # Number of instructions simulated
sim_ops                                     545364543                       # Number of ops (including micro ops) simulated
sim_seconds                                  1.709545                       # Number of seconds simulated
sim_ticks                                1709545166000                       # Number of ticks simulated
system.cpu.Branches                          49473264                       # Number of branches fetched
system.cpu.committedInsts                   297180987                       # Number of instructions committed
system.cpu.committedOps                     545364543                       # Number of ops (including micro ops) committed
system.cpu.idle_fraction                     0.000000                       # Percentage of idle cycles
system.cpu.not_idle_fraction                 1.000000                       # Percentage of non-idle cycles
system.cpu.numCycles                       1709545166                       # number of cpu cycles simulated
system.cpu.numWorkItemsCompleted                    0                       # number of work items this cpu completed
system.cpu.numWorkItemsStarted                      0                       # number of work items this cpu started
system.cpu.num_busy_cycles               1709545165.999000                       # Number of busy cycles
system.cpu.num_cc_register_reads            252086564                       # number of times the CC registers were read
system.cpu.num_cc_register_writes           180867038                       # number of times the CC registers were written
system.cpu.num_conditional_control_insts     49270092                       # number of instructions that are conditional controls
system.cpu.num_fp_alu_accesses              184508630                       # Number of float alu accesses
system.cpu.num_fp_insts                     184508630                       # number of float instructions
system.cpu.num_fp_register_reads            225216959                       # number of times the floating registers were read
system.cpu.num_fp_register_writes           180499649                       # number of times the floating registers were written
system.cpu.num_func_calls                       81592                       # number of times a function call or return occured
system.cpu.num_idle_cycles                   0.001000                       # Number of idle cycles
system.cpu.num_int_alu_accesses             435906622                       # Number of integer alu accesses
system.cpu.num_int_insts                    435906622                       # number of integer instructions
system.cpu.num_int_register_reads           778693006                       # number of times the integer registers were read
system.cpu.num_int_register_writes          309382683                       # number of times the integer registers were written
system.cpu.num_load_insts                   111390470                       # Number of load instructions
system.cpu.num_mem_refs                     116747137                       # number of memory refs
system.cpu.num_store_insts                    5356667                       # Number of store instructions
system.cpu.num_vec_alu_accesses                     0                       # Number of vector alu accesses
system.cpu.num_vec_insts                            0                       # number of vector instructions
system.cpu.num_vec_register_reads                   0                       # number of times the vector registers were read
system.cpu.num_vec_register_writes                  0                       # number of times the vector registers were written
system.cpu.op_class::No_OpClass                710625      0.13%      0.13% # Class of executed instruction
system.cpu.op_class::IntAlu                 322694264     59.17%     59.30% # Class of executed instruction
system.cpu.op_class::IntMult                    30102      0.01%     59.31% # Class of executed instruction
system.cpu.op_class::IntDiv                       623      0.00%     59.31% # Class of executed instruction
system.cpu.op_class::FloatAdd                33737834      6.19%     65.49% # Class of executed instruction
system.cpu.op_class::FloatCmp                       0      0.00%     65.49% # Class of executed instruction
system.cpu.op_class::FloatCvt                       0      0.00%     65.49% # Class of executed instruction
system.cpu.op_class::FloatMult                      0      0.00%     65.49% # Class of executed instruction
system.cpu.op_class::FloatMultAcc                   0      0.00%     65.49% # Class of executed instruction
system.cpu.op_class::FloatDiv                       0      0.00%     65.49% # Class of executed instruction
system.cpu.op_class::FloatMisc                      0      0.00%     65.49% # Class of executed instruction
system.cpu.op_class::FloatSqrt                      0      0.00%     65.49% # Class of executed instruction
system.cpu.op_class::SimdAdd                    76762      0.01%     65.51% # Class of executed instruction
system.cpu.op_class::SimdAddAcc                     0      0.00%     65.51% # Class of executed instruction
system.cpu.op_class::SimdAlu                    60252      0.01%     65.52% # Class of executed instruction
system.cpu.op_class::SimdCmp                       24      0.00%     65.52% # Class of executed instruction
system.cpu.op_class::SimdCvt                     1170      0.00%     65.52% # Class of executed instruction
system.cpu.op_class::SimdMisc                  125019      0.02%     65.54% # Class of executed instruction
system.cpu.op_class::SimdMult                       0      0.00%     65.54% # Class of executed instruction
system.cpu.op_class::SimdMultAcc                    0      0.00%     65.54% # Class of executed instruction
system.cpu.op_class::SimdShift                      0      0.00%     65.54% # Class of executed instruction
system.cpu.op_class::SimdShiftAcc                   0      0.00%     65.54% # Class of executed instruction
system.cpu.op_class::SimdDiv                        0      0.00%     65.54% # Class of executed instruction
system.cpu.op_class::SimdSqrt                       0      0.00%     65.54% # Class of executed instruction
system.cpu.op_class::SimdFloatAdd            35512541      6.51%     72.05% # Class of executed instruction
system.cpu.op_class::SimdFloatAlu                   0      0.00%     72.05% # Class of executed instruction
system.cpu.op_class::SimdFloatCmp                   0      0.00%     72.05% # Class of executed instruction
system.cpu.op_class::SimdFloatCvt              101637      0.02%     72.07% # Class of executed instruction
system.cpu.op_class::SimdFloatDiv                 835      0.00%     72.07% # Class of executed instruction
system.cpu.op_class::SimdFloatMisc                  0      0.00%     72.07% # Class of executed instruction
system.cpu.op_class::SimdFloatMult           35565797      6.52%     78.59% # Class of executed instruction
system.cpu.op_class::SimdFloatMultAcc               0      0.00%     78.59% # Class of executed instruction
system.cpu.op_class::SimdFloatSqrt                 32      0.00%     78.59% # Class of executed instruction
system.cpu.op_class::SimdReduceAdd                  0      0.00%     78.59% # Class of executed instruction
system.cpu.op_class::SimdReduceAlu                  0      0.00%     78.59% # Class of executed instruction
system.cpu.op_class::SimdReduceCmp                  0      0.00%     78.59% # Class of executed instruction
system.cpu.op_class::SimdFloatReduceAdd             0      0.00%     78.59% # Class of executed instruction
system.cpu.op_class::SimdFloatReduceCmp             0      0.00%     78.59% # Class of executed instruction
system.cpu.op_class::SimdAes                        0      0.00%     78.59% # Class of executed instruction
system.cpu.op_class::SimdAesMix                     0      0.00%     78.59% # Class of executed instruction
system.cpu.op_class::SimdSha1Hash                   0      0.00%     78.59% # Class of executed instruction
system.cpu.op_class::SimdSha1Hash2                  0      0.00%     78.59% # Class of executed instruction
system.cpu.op_class::SimdSha256Hash                 0      0.00%     78.59% # Class of executed instruction
system.cpu.op_class::SimdSha256Hash2                0      0.00%     78.59% # Class of executed instruction
system.cpu.op_class::SimdShaSigma2                  0      0.00%     78.59% # Class of executed instruction
system.cpu.op_class::SimdShaSigma3                  0      0.00%     78.59% # Class of executed instruction
system.cpu.op_class::SimdPredAlu                    0      0.00%     78.59% # Class of executed instruction
system.cpu.op_class::MemRead                 39670287      7.27%     85.87% # Class of executed instruction
system.cpu.op_class::MemWrite                 1421536      0.26%     86.13% # Class of executed instruction
system.cpu.op_class::FloatMemRead            71720183     13.15%     99.28% # Class of executed instruction
system.cpu.op_class::FloatMemWrite            3935131      0.72%    100.00% # Class of executed instruction
system.cpu.op_class::IprAccess                      0      0.00%    100.00% # Class of executed instruction
system.cpu.op_class::InstPrefetch                   0      0.00%    100.00% # Class of executed instruction
system.cpu.op_class::total                  545364654                       # Class of executed instruction
system.cpu.workload.numSyscalls                    87                       # Number of system calls
system.l2bus.snoop_filter.hit_multi_requests            0                       # Number of requests hitting in the snoop filter with multiple (>1) holders of the requested data.
system.l2bus.snoop_filter.hit_multi_snoops            0                       # Number of snoops hitting in the snoop filter with multiple (>1) holders of the requested data.
system.l2bus.snoop_filter.hit_single_requests      6626203                       # Number of requests hitting in the snoop filter with a single holder of the requested data.
system.l2bus.snoop_filter.hit_single_snoops        87834                       # Number of snoops hitting in the snoop filter with a single holder of the requested data.
system.l2bus.snoop_filter.tot_requests       13253686                       # Total number of requests made to the snoop filter.
system.l2bus.snoop_filter.tot_snoops            87834                       # Total number of snoops made to the snoop filter.
system.membus.snoop_filter.hit_multi_requests            0                       # Number of requests hitting in the snoop filter with multiple (>1) holders of the requested data.
system.membus.snoop_filter.hit_multi_snoops            0                       # Number of snoops hitting in the snoop filter with multiple (>1) holders of the requested data.
system.membus.snoop_filter.hit_single_requests      6518818                       # Number of requests hitting in the snoop filter with a single holder of the requested data.
system.membus.snoop_filter.hit_single_snoops            0                       # Number of snoops hitting in the snoop filter with a single holder of the requested data.
system.membus.snoop_filter.tot_requests      13041839                       # Total number of requests made to the snoop filter.
system.membus.snoop_filter.tot_snoops               0                       # Total number of snoops made to the snoop filter.
system.clk_domain.clock                          1000                       # Clock period in ticks
system.clk_domain.voltage_domain.voltage            1                       # Voltage in Volts
system.cpu.dcache.demand_hits::.cpu.data    110150248                       # number of demand (read+write) hits
system.cpu.dcache.demand_hits::total        110150248                       # number of demand (read+write) hits
system.cpu.dcache.overall_hits::.cpu.data    110150248                       # number of overall hits
system.cpu.dcache.overall_hits::total       110150248                       # number of overall hits
system.cpu.dcache.demand_misses::.cpu.data      6608747                       # number of demand (read+write) misses
system.cpu.dcache.demand_misses::total        6608747                       # number of demand (read+write) misses
system.cpu.dcache.overall_misses::.cpu.data      6608747                       # number of overall misses
system.cpu.dcache.overall_misses::total       6608747                       # number of overall misses
system.cpu.dcache.demand_miss_latency::.cpu.data 661559177000                       # number of demand (read+write) miss cycles
system.cpu.dcache.demand_miss_latency::total 661559177000                       # number of demand (read+write) miss cycles
system.cpu.dcache.overall_miss_latency::.cpu.data 661559177000                       # number of overall miss cycles
system.cpu.dcache.overall_miss_latency::total 661559177000                       # number of overall miss cycles
system.cpu.dcache.demand_accesses::.cpu.data    116758995                       # number of demand (read+write) accesses
system.cpu.dcache.demand_accesses::total    116758995                       # number of demand (read+write) accesses
system.cpu.dcache.overall_accesses::.cpu.data    116758995                       # number of overall (read+write) accesses
system.cpu.dcache.overall_accesses::total    116758995                       # number of overall (read+write) accesses
system.cpu.dcache.demand_miss_rate::.cpu.data     0.056602                       # miss rate for demand accesses
system.cpu.dcache.demand_miss_rate::total     0.056602                       # miss rate for demand accesses
system.cpu.dcache.overall_miss_rate::.cpu.data     0.056602                       # miss rate for overall accesses
system.cpu.dcache.overall_miss_rate::total     0.056602                       # miss rate for overall accesses
system.cpu.dcache.demand_avg_miss_latency::.cpu.data 100103.571373                       # average overall miss latency
system.cpu.dcache.demand_avg_miss_latency::total 100103.571373                       # average overall miss latency
system.cpu.dcache.overall_avg_miss_latency::.cpu.data 100103.571373                       # average overall miss latency
system.cpu.dcache.overall_avg_miss_latency::total 100103.571373                       # average overall miss latency
system.cpu.dcache.blocked_cycles::no_mshrs            0                       # number of cycles access was blocked
system.cpu.dcache.blocked_cycles::no_targets            0                       # number of cycles access was blocked
system.cpu.dcache.blocked::no_mshrs                 0                       # number of cycles access was blocked
system.cpu.dcache.blocked::no_targets               0                       # number of cycles access was blocked
system.cpu.dcache.avg_blocked_cycles::no_mshrs          nan                       # average number of cycles each access was blocked
system.cpu.dcache.avg_blocked_cycles::no_targets          nan                       # average number of cycles each access was blocked
system.cpu.dcache.writebacks::.writebacks       384297                       # number of writebacks
system.cpu.dcache.writebacks::total            384297                       # number of writebacks
system.cpu.dcache.demand_mshr_misses::.cpu.data      6608747                       # number of demand (read+write) MSHR misses
system.cpu.dcache.demand_mshr_misses::total      6608747                       # number of demand (read+write) MSHR misses
system.cpu.dcache.overall_mshr_misses::.cpu.data      6608747                       # number of overall MSHR misses
system.cpu.dcache.overall_mshr_misses::total      6608747                       # number of overall MSHR misses
system.cpu.dcache.demand_mshr_miss_latency::.cpu.data 648341683000                       # number of demand (read+write) MSHR miss cycles
system.cpu.dcache.demand_mshr_miss_latency::total 648341683000                       # number of demand (read+write) MSHR miss cycles
system.cpu.dcache.overall_mshr_miss_latency::.cpu.data 648341683000                       # number of overall MSHR miss cycles
system.cpu.dcache.overall_mshr_miss_latency::total 648341683000                       # number of overall MSHR miss cycles
system.cpu.dcache.demand_mshr_miss_rate::.cpu.data     0.056602                       # mshr miss rate for demand accesses
system.cpu.dcache.demand_mshr_miss_rate::total     0.056602                       # mshr miss rate for demand accesses
system.cpu.dcache.overall_mshr_miss_rate::.cpu.data     0.056602                       # mshr miss rate for overall accesses
system.cpu.dcache.overall_mshr_miss_rate::total     0.056602                       # mshr miss rate for overall accesses
system.cpu.dcache.demand_avg_mshr_miss_latency::.cpu.data 98103.571373                       # average overall mshr miss latency
system.cpu.dcache.demand_avg_mshr_miss_latency::total 98103.571373                       # average overall mshr miss latency
system.cpu.dcache.overall_avg_mshr_miss_latency::.cpu.data 98103.571373                       # average overall mshr miss latency
system.cpu.dcache.overall_avg_mshr_miss_latency::total 98103.571373                       # average overall mshr miss latency
system.cpu.dcache.replacements                6607723                       # number of replacements
system.cpu.dcache.ReadReq_hits::.cpu.data    104904677                       # number of ReadReq hits
system.cpu.dcache.ReadReq_hits::total       104904677                       # number of ReadReq hits
system.cpu.dcache.ReadReq_misses::.cpu.data      6490776                       # number of ReadReq misses
system.cpu.dcache.ReadReq_misses::total       6490776                       # number of ReadReq misses
system.cpu.dcache.ReadReq_miss_latency::.cpu.data 650657702000                       # number of ReadReq miss cycles
system.cpu.dcache.ReadReq_miss_latency::total 650657702000                       # number of ReadReq miss cycles
system.cpu.dcache.ReadReq_accesses::.cpu.data    111395453                       # number of ReadReq accesses(hits+misses)
system.cpu.dcache.ReadReq_accesses::total    111395453                       # number of ReadReq accesses(hits+misses)
system.cpu.dcache.ReadReq_miss_rate::.cpu.data     0.058268                       # miss rate for ReadReq accesses
system.cpu.dcache.ReadReq_miss_rate::total     0.058268                       # miss rate for ReadReq accesses
system.cpu.dcache.ReadReq_avg_miss_latency::.cpu.data 100243.438073                       # average ReadReq miss latency
system.cpu.dcache.ReadReq_avg_miss_latency::total 100243.438073                       # average ReadReq miss latency
system.cpu.dcache.ReadReq_mshr_misses::.cpu.data      6490776                       # number of ReadReq MSHR misses
system.cpu.dcache.ReadReq_mshr_misses::total      6490776                       # number of ReadReq MSHR misses
system.cpu.dcache.ReadReq_mshr_miss_latency::.cpu.data 637676150000                       # number of ReadReq MSHR miss cycles
system.cpu.dcache.ReadReq_mshr_miss_latency::total 637676150000                       # number of ReadReq MSHR miss cycles
system.cpu.dcache.ReadReq_mshr_miss_rate::.cpu.data     0.058268                       # mshr miss rate for ReadReq accesses
system.cpu.dcache.ReadReq_mshr_miss_rate::total     0.058268                       # mshr miss rate for ReadReq accesses
system.cpu.dcache.ReadReq_avg_mshr_miss_latency::.cpu.data 98243.438073                       # average ReadReq mshr miss latency
system.cpu.dcache.ReadReq_avg_mshr_miss_latency::total 98243.438073                       # average ReadReq mshr miss latency
system.cpu.dcache.WriteReq_hits::.cpu.data      5245571                       # number of WriteReq hits
system.cpu.dcache.WriteReq_hits::total        5245571                       # number of WriteReq hits
system.cpu.dcache.WriteReq_misses::.cpu.data       117971                       # number of WriteReq misses
system.cpu.dcache.WriteReq_misses::total       117971                       # number of WriteReq misses
system.cpu.dcache.WriteReq_miss_latency::.cpu.data  10901475000                       # number of WriteReq miss cycles
system.cpu.dcache.WriteReq_miss_latency::total  10901475000                       # number of WriteReq miss cycles
system.cpu.dcache.WriteReq_accesses::.cpu.data      5363542                       # number of WriteReq accesses(hits+misses)
system.cpu.dcache.WriteReq_accesses::total      5363542                       # number of WriteReq accesses(hits+misses)
system.cpu.dcache.WriteReq_miss_rate::.cpu.data     0.021995                       # miss rate for WriteReq accesses
system.cpu.dcache.WriteReq_miss_rate::total     0.021995                       # miss rate for WriteReq accesses
system.cpu.dcache.WriteReq_avg_miss_latency::.cpu.data 92408.091819                       # average WriteReq miss latency
system.cpu.dcache.WriteReq_avg_miss_latency::total 92408.091819                       # average WriteReq miss latency
system.cpu.dcache.WriteReq_mshr_misses::.cpu.data       117971                       # number of WriteReq MSHR misses
system.cpu.dcache.WriteReq_mshr_misses::total       117971                       # number of WriteReq MSHR misses
system.cpu.dcache.WriteReq_mshr_miss_latency::.cpu.data  10665533000                       # number of WriteReq MSHR miss cycles
system.cpu.dcache.WriteReq_mshr_miss_latency::total  10665533000                       # number of WriteReq MSHR miss cycles
system.cpu.dcache.WriteReq_mshr_miss_rate::.cpu.data     0.021995                       # mshr miss rate for WriteReq accesses
system.cpu.dcache.WriteReq_mshr_miss_rate::total     0.021995                       # mshr miss rate for WriteReq accesses
system.cpu.dcache.WriteReq_avg_mshr_miss_latency::.cpu.data 90408.091819                       # average WriteReq mshr miss latency
system.cpu.dcache.WriteReq_avg_mshr_miss_latency::total 90408.091819                       # average WriteReq mshr miss latency
system.cpu.dcache.power_state.pwrStateResidencyTicks::UNDEFINED 1709545166000                       # Cumulative time (in ticks) in various power states
system.cpu.dcache.tags.tagsinuse          1023.810035                       # Cycle average of tags in use
system.cpu.dcache.tags.total_refs           116758995                       # Total number of references to valid blocks.
system.cpu.dcache.tags.sampled_refs           6608747                       # Sample count of references to valid blocks.
system.cpu.dcache.tags.avg_refs             17.667342                       # Average number of references to valid blocks.
system.cpu.dcache.tags.warmup_cycle            224000                       # Cycle when the warmup percentage was hit.
system.cpu.dcache.tags.occ_blocks::.cpu.data  1023.810035                       # Average occupied blocks per requestor
system.cpu.dcache.tags.occ_percent::.cpu.data     0.999814                       # Average percentage of cache occupancy
system.cpu.dcache.tags.occ_percent::total     0.999814                       # Average percentage of cache occupancy
system.cpu.dcache.tags.occ_task_id_blocks::1024         1024                       # Occupied blocks per task id
system.cpu.dcache.tags.age_task_id_blocks_1024::0           28                       # Occupied blocks per task id
system.cpu.dcache.tags.age_task_id_blocks_1024::1          109                       # Occupied blocks per task id
system.cpu.dcache.tags.age_task_id_blocks_1024::2          807                       # Occupied blocks per task id
system.cpu.dcache.tags.age_task_id_blocks_1024::3           80                       # Occupied blocks per task id
system.cpu.dcache.tags.occ_task_id_percent::1024            1                       # Percentage of cache occupancy per task id
system.cpu.dcache.tags.tag_accesses         240126737                       # Number of tag accesses
system.cpu.dcache.tags.data_accesses        240126737                       # Number of data accesses
system.cpu.dcache.tags.power_state.pwrStateResidencyTicks::UNDEFINED 1709545166000                       # Cumulative time (in ticks) in various power states
system.cpu.dtb.rdAccesses                   111395454                       # TLB accesses on read requests
system.cpu.dtb.wrAccesses                     5363565                       # TLB accesses on write requests
system.cpu.dtb.rdMisses                        115974                       # TLB misses on read requests
system.cpu.dtb.wrMisses                          1462                       # TLB misses on write requests
system.cpu.dtb.walker.power_state.pwrStateResidencyTicks::UNDEFINED 1709545166000                       # Cumulative time (in ticks) in various power states
system.cpu.icache.demand_hits::.cpu.inst    413236068                       # number of demand (read+write) hits
system.cpu.icache.demand_hits::total        413236068                       # number of demand (read+write) hits
system.cpu.icache.overall_hits::.cpu.inst    413236068                       # number of overall hits
system.cpu.icache.overall_hits::total       413236068                       # number of overall hits
system.cpu.icache.demand_misses::.cpu.inst        18736                       # number of demand (read+write) misses
system.cpu.icache.demand_misses::total          18736                       # number of demand (read+write) misses
system.cpu.icache.overall_misses::.cpu.inst        18736                       # number of overall misses
system.cpu.icache.overall_misses::total         18736                       # number of overall misses
system.cpu.icache.demand_miss_latency::.cpu.inst   1242215000                       # number of demand (read+write) miss cycles
system.cpu.icache.demand_miss_latency::total   1242215000                       # number of demand (read+write) miss cycles
system.cpu.icache.overall_miss_latency::.cpu.inst   1242215000                       # number of overall miss cycles
system.cpu.icache.overall_miss_latency::total   1242215000                       # number of overall miss cycles
system.cpu.icache.demand_accesses::.cpu.inst    413254804                       # number of demand (read+write) accesses
system.cpu.icache.demand_accesses::total    413254804                       # number of demand (read+write) accesses
system.cpu.icache.overall_accesses::.cpu.inst    413254804                       # number of overall (read+write) accesses
system.cpu.icache.overall_accesses::total    413254804                       # number of overall (read+write) accesses
system.cpu.icache.demand_miss_rate::.cpu.inst     0.000045                       # miss rate for demand accesses
system.cpu.icache.demand_miss_rate::total     0.000045                       # miss rate for demand accesses
system.cpu.icache.overall_miss_rate::.cpu.inst     0.000045                       # miss rate for overall accesses
system.cpu.icache.overall_miss_rate::total     0.000045                       # miss rate for overall accesses
system.cpu.icache.demand_avg_miss_latency::.cpu.inst 66300.971392                       # average overall miss latency
system.cpu.icache.demand_avg_miss_latency::total 66300.971392                       # average overall miss latency
system.cpu.icache.overall_avg_miss_latency::.cpu.inst 66300.971392                       # average overall miss latency
system.cpu.icache.overall_avg_miss_latency::total 66300.971392                       # average overall miss latency
system.cpu.icache.blocked_cycles::no_mshrs            0                       # number of cycles access was blocked
system.cpu.icache.blocked_cycles::no_targets            0                       # number of cycles access was blocked
system.cpu.icache.blocked::no_mshrs                 0                       # number of cycles access was blocked
system.cpu.icache.blocked::no_targets               0                       # number of cycles access was blocked
system.cpu.icache.avg_blocked_cycles::no_mshrs          nan                       # average number of cycles each access was blocked
system.cpu.icache.avg_blocked_cycles::no_targets          nan                       # average number of cycles each access was blocked
system.cpu.icache.demand_mshr_misses::.cpu.inst        18736                       # number of demand (read+write) MSHR misses
system.cpu.icache.demand_mshr_misses::total        18736                       # number of demand (read+write) MSHR misses
system.cpu.icache.overall_mshr_misses::.cpu.inst        18736                       # number of overall MSHR misses
system.cpu.icache.overall_mshr_misses::total        18736                       # number of overall MSHR misses
system.cpu.icache.demand_mshr_miss_latency::.cpu.inst   1204743000                       # number of demand (read+write) MSHR miss cycles
system.cpu.icache.demand_mshr_miss_latency::total   1204743000                       # number of demand (read+write) MSHR miss cycles
system.cpu.icache.overall_mshr_miss_latency::.cpu.inst   1204743000                       # number of overall MSHR miss cycles
system.cpu.icache.overall_mshr_miss_latency::total   1204743000                       # number of overall MSHR miss cycles
system.cpu.icache.demand_mshr_miss_rate::.cpu.inst     0.000045                       # mshr miss rate for demand accesses
system.cpu.icache.demand_mshr_miss_rate::total     0.000045                       # mshr miss rate for demand accesses
system.cpu.icache.overall_mshr_miss_rate::.cpu.inst     0.000045                       # mshr miss rate for overall accesses
system.cpu.icache.overall_mshr_miss_rate::total     0.000045                       # mshr miss rate for overall accesses
system.cpu.icache.demand_avg_mshr_miss_latency::.cpu.inst 64300.971392                       # average overall mshr miss latency
system.cpu.icache.demand_avg_mshr_miss_latency::total 64300.971392                       # average overall mshr miss latency
system.cpu.icache.overall_avg_mshr_miss_latency::.cpu.inst 64300.971392                       # average overall mshr miss latency
system.cpu.icache.overall_avg_mshr_miss_latency::total 64300.971392                       # average overall mshr miss latency
system.cpu.icache.replacements                  18480                       # number of replacements
system.cpu.icache.ReadReq_hits::.cpu.inst    413236068                       # number of ReadReq hits
system.cpu.icache.ReadReq_hits::total       413236068                       # number of ReadReq hits
system.cpu.icache.ReadReq_misses::.cpu.inst        18736                       # number of ReadReq misses
system.cpu.icache.ReadReq_misses::total         18736                       # number of ReadReq misses
system.cpu.icache.ReadReq_miss_latency::.cpu.inst   1242215000                       # number of ReadReq miss cycles
system.cpu.icache.ReadReq_miss_latency::total   1242215000                       # number of ReadReq miss cycles
system.cpu.icache.ReadReq_accesses::.cpu.inst    413254804                       # number of ReadReq accesses(hits+misses)
system.cpu.icache.ReadReq_accesses::total    413254804                       # number of ReadReq accesses(hits+misses)
system.cpu.icache.ReadReq_miss_rate::.cpu.inst     0.000045                       # miss rate for ReadReq accesses
system.cpu.icache.ReadReq_miss_rate::total     0.000045                       # miss rate for ReadReq accesses
system.cpu.icache.ReadReq_avg_miss_latency::.cpu.inst 66300.971392                       # average ReadReq miss latency
system.cpu.icache.ReadReq_avg_miss_latency::total 66300.971392                       # average ReadReq miss latency
system.cpu.icache.ReadReq_mshr_misses::.cpu.inst        18736                       # number of ReadReq MSHR misses
system.cpu.icache.ReadReq_mshr_misses::total        18736                       # number of ReadReq MSHR misses
system.cpu.icache.ReadReq_mshr_miss_latency::.cpu.inst   1204743000                       # number of ReadReq MSHR miss cycles
system.cpu.icache.ReadReq_mshr_miss_latency::total   1204743000                       # number of ReadReq MSHR miss cycles
system.cpu.icache.ReadReq_mshr_miss_rate::.cpu.inst     0.000045                       # mshr miss rate for ReadReq accesses
system.cpu.icache.ReadReq_mshr_miss_rate::total     0.000045                       # mshr miss rate for ReadReq accesses
system.cpu.icache.ReadReq_avg_mshr_miss_latency::.cpu.inst 64300.971392                       # average ReadReq mshr miss latency
system.cpu.icache.ReadReq_avg_mshr_miss_latency::total 64300.971392                       # average ReadReq mshr miss latency
system.cpu.icache.power_state.pwrStateResidencyTicks::UNDEFINED 1709545166000                       # Cumulative time (in ticks) in various power states
system.cpu.icache.tags.tagsinuse           255.992329                       # Cycle average of tags in use
system.cpu.icache.tags.total_refs           413254804                       # Total number of references to valid blocks.
system.cpu.icache.tags.sampled_refs             18736                       # Sample count of references to valid blocks.
system.cpu.icache.tags.avg_refs          22056.725235                       # Average number of references to valid blocks.
system.cpu.icache.tags.warmup_cycle            107000                       # Cycle when the warmup percentage was hit.
system.cpu.icache.tags.occ_blocks::.cpu.inst   255.992329                       # Average occupied blocks per requestor
system.cpu.icache.tags.occ_percent::.cpu.inst     0.999970                       # Average percentage of cache occupancy
system.cpu.icache.tags.occ_percent::total     0.999970                       # Average percentage of cache occupancy
system.cpu.icache.tags.occ_task_id_blocks::1024          256                       # Occupied blocks per task id
system.cpu.icache.tags.age_task_id_blocks_1024::0           35                       # Occupied blocks per task id
system.cpu.icache.tags.age_task_id_blocks_1024::1          116                       # Occupied blocks per task id
system.cpu.icache.tags.age_task_id_blocks_1024::2           98                       # Occupied blocks per task id
system.cpu.icache.tags.age_task_id_blocks_1024::4            7                       # Occupied blocks per task id
system.cpu.icache.tags.occ_task_id_percent::1024            1                       # Percentage of cache occupancy per task id
system.cpu.icache.tags.tag_accesses         826528344                       # Number of tag accesses
system.cpu.icache.tags.data_accesses        826528344                       # Number of data accesses
system.cpu.icache.tags.power_state.pwrStateResidencyTicks::UNDEFINED 1709545166000                       # Cumulative time (in ticks) in various power states
system.cpu.interrupts.clk_domain.clock          16000                       # Clock period in ticks
system.cpu.itb.rdAccesses                           0                       # TLB accesses on read requests
system.cpu.itb.wrAccesses                   413254804                       # TLB accesses on write requests
system.cpu.itb.rdMisses                             0                       # TLB misses on read requests
system.cpu.itb.wrMisses                           110                       # TLB misses on write requests
system.cpu.itb.walker.power_state.pwrStateResidencyTicks::UNDEFINED 1709545166000                       # Cumulative time (in ticks) in various power states
system.cpu.power_state.pwrStateResidencyTicks::ON 1709545166000                       # Cumulative time (in ticks) in various power states
system.cpu.thread_0.numInsts                        0                       # Number of Instructions committed
system.cpu.thread_0.numOps                          0                       # Number of Ops committed
system.cpu.thread_0.numMemRefs                      0                       # Number of Memory References
system.l2bus.trans_dist::ReadResp             6509512                       # Transaction distribution
system.l2bus.trans_dist::WritebackDirty        711251                       # Transaction distribution
system.l2bus.trans_dist::CleanEvict          12456128                       # Transaction distribution
system.l2bus.trans_dist::ReadExReq             117971                       # Transaction distribution
system.l2bus.trans_dist::ReadExResp            117971                       # Transaction distribution
system.l2bus.trans_dist::ReadSharedReq        6509512                       # Transaction distribution
system.l2bus.pkt_count_system.cpu.icache.mem_side_port::system.l2cache.cpu_side_port        55952                       # Packet count per connected requestor and responder (bytes)
system.l2bus.pkt_count_system.cpu.dcache.mem_side_port::system.l2cache.cpu_side_port     19825217                       # Packet count per connected requestor and responder (bytes)
system.l2bus.pkt_count::total                19881169                       # Packet count per connected requestor and responder (bytes)
system.l2bus.pkt_size_system.cpu.icache.mem_side_port::system.l2cache.cpu_side_port      1199104                       # Cumulative packet size per connected requestor and responder (bytes)
system.l2bus.pkt_size_system.cpu.dcache.mem_side_port::system.l2cache.cpu_side_port    447554816                       # Cumulative packet size per connected requestor and responder (bytes)
system.l2bus.pkt_size::total                448753920                       # Cumulative packet size per connected requestor and responder (bytes)
system.l2bus.snoops                           6541176                       # Total snoops (count)
system.l2bus.snoopTraffic                    20925056                       # Total snoop traffic (bytes)
system.l2bus.snoop_fanout::samples           13168659                       # Request fanout histogram
system.l2bus.snoop_fanout::mean              0.006670                       # Request fanout histogram
system.l2bus.snoop_fanout::stdev             0.081397                       # Request fanout histogram
system.l2bus.snoop_fanout::underflows               0      0.00%      0.00% # Request fanout histogram
system.l2bus.snoop_fanout::0                 13080825     99.33%     99.33% # Request fanout histogram
system.l2bus.snoop_fanout::1                    87834      0.67%    100.00% # Request fanout histogram
system.l2bus.snoop_fanout::2                        0      0.00%    100.00% # Request fanout histogram
system.l2bus.snoop_fanout::overflows                0      0.00%    100.00% # Request fanout histogram
system.l2bus.snoop_fanout::min_value                0                       # Request fanout histogram
system.l2bus.snoop_fanout::max_value                1                       # Request fanout histogram
system.l2bus.snoop_fanout::total             13168659                       # Request fanout histogram
system.l2bus.power_state.pwrStateResidencyTicks::UNDEFINED 1709545166000                       # Cumulative time (in ticks) in various power states
system.l2bus.reqLayer0.occupancy          14022280000                       # Layer occupancy (ticks)
system.l2bus.reqLayer0.utilization                0.8                       # Layer utilization (%)
system.l2bus.respLayer0.occupancy            56208000                       # Layer occupancy (ticks)
system.l2bus.respLayer0.utilization               0.0                       # Layer utilization (%)
system.l2bus.respLayer1.occupancy         19826241000                       # Layer occupancy (ticks)
system.l2bus.respLayer1.utilization               1.2                       # Layer utilization (%)
system.l2cache.demand_hits::.cpu.inst            8971                       # number of demand (read+write) hits
system.l2cache.demand_hits::.cpu.data           95491                       # number of demand (read+write) hits
system.l2cache.demand_hits::total              104462                       # number of demand (read+write) hits
system.l2cache.overall_hits::.cpu.inst           8971                       # number of overall hits
system.l2cache.overall_hits::.cpu.data          95491                       # number of overall hits
system.l2cache.overall_hits::total             104462                       # number of overall hits
system.l2cache.demand_misses::.cpu.inst          9765                       # number of demand (read+write) misses
system.l2cache.demand_misses::.cpu.data       6513256                       # number of demand (read+write) misses
system.l2cache.demand_misses::total           6523021                       # number of demand (read+write) misses
system.l2cache.overall_misses::.cpu.inst         9765                       # number of overall misses
system.l2cache.overall_misses::.cpu.data      6513256                       # number of overall misses
system.l2cache.overall_misses::total          6523021                       # number of overall misses
system.l2cache.demand_miss_latency::.cpu.inst    960117000                       # number of demand (read+write) miss cycles
system.l2cache.demand_miss_latency::.cpu.data 626509647000                       # number of demand (read+write) miss cycles
system.l2cache.demand_miss_latency::total 627469764000                       # number of demand (read+write) miss cycles
system.l2cache.overall_miss_latency::.cpu.inst    960117000                       # number of overall miss cycles
system.l2cache.overall_miss_latency::.cpu.data 626509647000                       # number of overall miss cycles
system.l2cache.overall_miss_latency::total 627469764000                       # number of overall miss cycles
system.l2cache.demand_accesses::.cpu.inst        18736                       # number of demand (read+write) accesses
system.l2cache.demand_accesses::.cpu.data      6608747                       # number of demand (read+write) accesses
system.l2cache.demand_accesses::total         6627483                       # number of demand (read+write) accesses
system.l2cache.overall_accesses::.cpu.inst        18736                       # number of overall (read+write) accesses
system.l2cache.overall_accesses::.cpu.data      6608747                       # number of overall (read+write) accesses
system.l2cache.overall_accesses::total        6627483                       # number of overall (read+write) accesses
system.l2cache.demand_miss_rate::.cpu.inst     0.521189                       # miss rate for demand accesses
system.l2cache.demand_miss_rate::.cpu.data     0.985551                       # miss rate for demand accesses
system.l2cache.demand_miss_rate::total       0.984238                       # miss rate for demand accesses
system.l2cache.overall_miss_rate::.cpu.inst     0.521189                       # miss rate for overall accesses
system.l2cache.overall_miss_rate::.cpu.data     0.985551                       # miss rate for overall accesses
system.l2cache.overall_miss_rate::total      0.984238                       # miss rate for overall accesses
system.l2cache.demand_avg_miss_latency::.cpu.inst 98322.273425                       # average overall miss latency
system.l2cache.demand_avg_miss_latency::.cpu.data 96189.931272                       # average overall miss latency
system.l2cache.demand_avg_miss_latency::total 96193.123401                       # average overall miss latency
system.l2cache.overall_avg_miss_latency::.cpu.inst 98322.273425                       # average overall miss latency
system.l2cache.overall_avg_miss_latency::.cpu.data 96189.931272                       # average overall miss latency
system.l2cache.overall_avg_miss_latency::total 96193.123401                       # average overall miss latency
system.l2cache.blocked_cycles::no_mshrs             0                       # number of cycles access was blocked
system.l2cache.blocked_cycles::no_targets            0                       # number of cycles access was blocked
system.l2cache.blocked::no_mshrs                    0                       # number of cycles access was blocked
system.l2cache.blocked::no_targets                  0                       # number of cycles access was blocked
system.l2cache.avg_blocked_cycles::no_mshrs          nan                       # average number of cycles each access was blocked
system.l2cache.avg_blocked_cycles::no_targets          nan                       # average number of cycles each access was blocked
system.l2cache.writebacks::.writebacks         326954                       # number of writebacks
system.l2cache.writebacks::total               326954                       # number of writebacks
system.l2cache.demand_mshr_misses::.cpu.inst         9765                       # number of demand (read+write) MSHR misses
system.l2cache.demand_mshr_misses::.cpu.data      6513256                       # number of demand (read+write) MSHR misses
system.l2cache.demand_mshr_misses::total      6523021                       # number of demand (read+write) MSHR misses
system.l2cache.overall_mshr_misses::.cpu.inst         9765                       # number of overall MSHR misses
system.l2cache.overall_mshr_misses::.cpu.data      6513256                       # number of overall MSHR misses
system.l2cache.overall_mshr_misses::total      6523021                       # number of overall MSHR misses
system.l2cache.demand_mshr_miss_latency::.cpu.inst    764817000                       # number of demand (read+write) MSHR miss cycles
system.l2cache.demand_mshr_miss_latency::.cpu.data 496244527000                       # number of demand (read+write) MSHR miss cycles
system.l2cache.demand_mshr_miss_latency::total 497009344000                       # number of demand (read+write) MSHR miss cycles
system.l2cache.overall_mshr_miss_latency::.cpu.inst    764817000                       # number of overall MSHR miss cycles
system.l2cache.overall_mshr_miss_latency::.cpu.data 496244527000                       # number of overall MSHR miss cycles
system.l2cache.overall_mshr_miss_latency::total 497009344000                       # number of overall MSHR miss cycles
system.l2cache.demand_mshr_miss_rate::.cpu.inst     0.521189                       # mshr miss rate for demand accesses
system.l2cache.demand_mshr_miss_rate::.cpu.data     0.985551                       # mshr miss rate for demand accesses
system.l2cache.demand_mshr_miss_rate::total     0.984238                       # mshr miss rate for demand accesses
system.l2cache.overall_mshr_miss_rate::.cpu.inst     0.521189                       # mshr miss rate for overall accesses
system.l2cache.overall_mshr_miss_rate::.cpu.data     0.985551                       # mshr miss rate for overall accesses
system.l2cache.overall_mshr_miss_rate::total     0.984238                       # mshr miss rate for overall accesses
system.l2cache.demand_avg_mshr_miss_latency::.cpu.inst 78322.273425                       # average overall mshr miss latency
system.l2cache.demand_avg_mshr_miss_latency::.cpu.data 76189.931272                       # average overall mshr miss latency
system.l2cache.demand_avg_mshr_miss_latency::total 76193.123401                       # average overall mshr miss latency
system.l2cache.overall_avg_mshr_miss_latency::.cpu.inst 78322.273425                       # average overall mshr miss latency
system.l2cache.overall_avg_mshr_miss_latency::.cpu.data 76189.931272                       # average overall mshr miss latency
system.l2cache.overall_avg_mshr_miss_latency::total 76193.123401                       # average overall mshr miss latency
system.l2cache.replacements                   6476708                       # number of replacements
system.l2cache.WritebackDirty_hits::.writebacks       384063                       # number of WritebackDirty hits
system.l2cache.WritebackDirty_hits::total       384063                       # number of WritebackDirty hits
system.l2cache.WritebackDirty_misses::.writebacks          234                       # number of WritebackDirty misses
system.l2cache.WritebackDirty_misses::total          234                       # number of WritebackDirty misses
system.l2cache.WritebackDirty_accesses::.writebacks       384297                       # number of WritebackDirty accesses(hits+misses)
system.l2cache.WritebackDirty_accesses::total       384297                       # number of WritebackDirty accesses(hits+misses)
system.l2cache.WritebackDirty_miss_rate::.writebacks     0.000609                       # miss rate for WritebackDirty accesses
system.l2cache.WritebackDirty_miss_rate::total     0.000609                       # miss rate for WritebackDirty accesses
system.l2cache.WritebackDirty_mshr_misses::.writebacks          234                       # number of WritebackDirty MSHR misses
system.l2cache.WritebackDirty_mshr_misses::total          234                       # number of WritebackDirty MSHR misses
system.l2cache.WritebackDirty_mshr_miss_rate::.writebacks     0.000609                       # mshr miss rate for WritebackDirty accesses
system.l2cache.WritebackDirty_mshr_miss_rate::total     0.000609                       # mshr miss rate for WritebackDirty accesses
system.l2cache.CleanEvict_mshr_misses::.writebacks        65242                       # number of CleanEvict MSHR misses
system.l2cache.CleanEvict_mshr_misses::total        65242                       # number of CleanEvict MSHR misses
system.l2cache.CleanEvict_mshr_miss_rate::.writebacks          inf                       # mshr miss rate for CleanEvict accesses
system.l2cache.CleanEvict_mshr_miss_rate::total          inf                       # mshr miss rate for CleanEvict accesses
system.l2cache.ReadExReq_hits::.cpu.data        26386                       # number of ReadExReq hits
system.l2cache.ReadExReq_hits::total            26386                       # number of ReadExReq hits
system.l2cache.ReadExReq_misses::.cpu.data        91585                       # number of ReadExReq misses
system.l2cache.ReadExReq_misses::total          91585                       # number of ReadExReq misses
system.l2cache.ReadExReq_miss_latency::.cpu.data   9757208000                       # number of ReadExReq miss cycles
system.l2cache.ReadExReq_miss_latency::total   9757208000                       # number of ReadExReq miss cycles
system.l2cache.ReadExReq_accesses::.cpu.data       117971                       # number of ReadExReq accesses(hits+misses)
system.l2cache.ReadExReq_accesses::total       117971                       # number of ReadExReq accesses(hits+misses)
system.l2cache.ReadExReq_miss_rate::.cpu.data     0.776335                       # miss rate for ReadExReq accesses
system.l2cache.ReadExReq_miss_rate::total     0.776335                       # miss rate for ReadExReq accesses
system.l2cache.ReadExReq_avg_miss_latency::.cpu.data 106537.184037                       # average ReadExReq miss latency
system.l2cache.ReadExReq_avg_miss_latency::total 106537.184037                       # average ReadExReq miss latency
system.l2cache.ReadExReq_mshr_misses::.cpu.data        91585                       # number of ReadExReq MSHR misses
system.l2cache.ReadExReq_mshr_misses::total        91585                       # number of ReadExReq MSHR misses
system.l2cache.ReadExReq_mshr_miss_latency::.cpu.data   7925508000                       # number of ReadExReq MSHR miss cycles
system.l2cache.ReadExReq_mshr_miss_latency::total   7925508000                       # number of ReadExReq MSHR miss cycles
system.l2cache.ReadExReq_mshr_miss_rate::.cpu.data     0.776335                       # mshr miss rate for ReadExReq accesses
system.l2cache.ReadExReq_mshr_miss_rate::total     0.776335                       # mshr miss rate for ReadExReq accesses
system.l2cache.ReadExReq_avg_mshr_miss_latency::.cpu.data 86537.184037                       # average ReadExReq mshr miss latency
system.l2cache.ReadExReq_avg_mshr_miss_latency::total 86537.184037                       # average ReadExReq mshr miss latency
system.l2cache.ReadSharedReq_hits::.cpu.inst         8971                       # number of ReadSharedReq hits
system.l2cache.ReadSharedReq_hits::.cpu.data        69105                       # number of ReadSharedReq hits
system.l2cache.ReadSharedReq_hits::total        78076                       # number of ReadSharedReq hits
system.l2cache.ReadSharedReq_misses::.cpu.inst         9765                       # number of ReadSharedReq misses
system.l2cache.ReadSharedReq_misses::.cpu.data      6421671                       # number of ReadSharedReq misses
system.l2cache.ReadSharedReq_misses::total      6431436                       # number of ReadSharedReq misses
system.l2cache.ReadSharedReq_miss_latency::.cpu.inst    960117000                       # number of ReadSharedReq miss cycles
system.l2cache.ReadSharedReq_miss_latency::.cpu.data 616752439000                       # number of ReadSharedReq miss cycles
system.l2cache.ReadSharedReq_miss_latency::total 617712556000                       # number of ReadSharedReq miss cycles
system.l2cache.ReadSharedReq_accesses::.cpu.inst        18736                       # number of ReadSharedReq accesses(hits+misses)
system.l2cache.ReadSharedReq_accesses::.cpu.data      6490776                       # number of ReadSharedReq accesses(hits+misses)
system.l2cache.ReadSharedReq_accesses::total      6509512                       # number of ReadSharedReq accesses(hits+misses)
system.l2cache.ReadSharedReq_miss_rate::.cpu.inst     0.521189                       # miss rate for ReadSharedReq accesses
system.l2cache.ReadSharedReq_miss_rate::.cpu.data     0.989353                       # miss rate for ReadSharedReq accesses
system.l2cache.ReadSharedReq_miss_rate::total     0.988006                       # miss rate for ReadSharedReq accesses
system.l2cache.ReadSharedReq_avg_miss_latency::.cpu.inst 98322.273425                       # average ReadSharedReq miss latency
system.l2cache.ReadSharedReq_avg_miss_latency::.cpu.data 96042.360158                       # average ReadSharedReq miss latency
system.l2cache.ReadSharedReq_avg_miss_latency::total 96045.821804                       # average ReadSharedReq miss latency
system.l2cache.ReadSharedReq_mshr_misses::.cpu.inst         9765                       # number of ReadSharedReq MSHR misses
system.l2cache.ReadSharedReq_mshr_misses::.cpu.data      6421671                       # number of ReadSharedReq MSHR misses
system.l2cache.ReadSharedReq_mshr_misses::total      6431436                       # number of ReadSharedReq MSHR misses
system.l2cache.ReadSharedReq_mshr_miss_latency::.cpu.inst    764817000                       # number of ReadSharedReq MSHR miss cycles
system.l2cache.ReadSharedReq_mshr_miss_latency::.cpu.data 488319019000                       # number of ReadSharedReq MSHR miss cycles
system.l2cache.ReadSharedReq_mshr_miss_latency::total 489083836000                       # number of ReadSharedReq MSHR miss cycles
system.l2cache.ReadSharedReq_mshr_miss_rate::.cpu.inst     0.521189                       # mshr miss rate for ReadSharedReq accesses
system.l2cache.ReadSharedReq_mshr_miss_rate::.cpu.data     0.989353                       # mshr miss rate for ReadSharedReq accesses
system.l2cache.ReadSharedReq_mshr_miss_rate::total     0.988006                       # mshr miss rate for ReadSharedReq accesses
system.l2cache.ReadSharedReq_avg_mshr_miss_latency::.cpu.inst 78322.273425                       # average ReadSharedReq mshr miss latency
system.l2cache.ReadSharedReq_avg_mshr_miss_latency::.cpu.data 76042.360158                       # average ReadSharedReq mshr miss latency
system.l2cache.ReadSharedReq_avg_mshr_miss_latency::total 76045.821804                       # average ReadSharedReq mshr miss latency
system.l2cache.power_state.pwrStateResidencyTicks::UNDEFINED 1709545166000                       # Cumulative time (in ticks) in various power states
system.l2cache.replacement_policy.totalBypasses        64702                       # Total number of cache bypasses
system.l2cache.replacement_policy.effectiveBypasses           53                       # Bypasses that correctly skipped non-reused blocks
system.l2cache.replacement_policy.ineffectiveBypasses          306                       # Bypasses that incorrectly skipped requested blocks
system.l2cache.replacement_policy.virtualEffectiveBypasses          667                       # Virtual bypasses correctly predicting non-reused blocks
system.l2cache.replacement_policy.virtualIneffectiveBypasses       289003                       # Virtual bypasses incorrectly predicting requested blocks
system.l2cache.tags.tagsinuse             4092.907088                       # Cycle average of tags in use
system.l2cache.tags.total_refs               13123742                       # Total number of references to valid blocks.
system.l2cache.tags.sampled_refs              6480804                       # Sample count of references to valid blocks.
system.l2cache.tags.avg_refs                 2.025018                       # Average number of references to valid blocks.
system.l2cache.tags.warmup_cycle                86000                       # Cycle when the warmup percentage was hit.
system.l2cache.tags.occ_blocks::.writebacks    12.540542                       # Average occupied blocks per requestor
system.l2cache.tags.occ_blocks::.cpu.inst     5.645738                       # Average occupied blocks per requestor
system.l2cache.tags.occ_blocks::.cpu.data  4074.720808                       # Average occupied blocks per requestor
system.l2cache.tags.occ_percent::.writebacks     0.003062                       # Average percentage of cache occupancy
system.l2cache.tags.occ_percent::.cpu.inst     0.001378                       # Average percentage of cache occupancy
system.l2cache.tags.occ_percent::.cpu.data     0.994805                       # Average percentage of cache occupancy
system.l2cache.tags.occ_percent::total       0.999245                       # Average percentage of cache occupancy
system.l2cache.tags.occ_task_id_blocks::1024         4096                       # Occupied blocks per task id
system.l2cache.tags.age_task_id_blocks_1024::0           60                       # Occupied blocks per task id
system.l2cache.tags.age_task_id_blocks_1024::1          155                       # Occupied blocks per task id
system.l2cache.tags.age_task_id_blocks_1024::2         2148                       # Occupied blocks per task id
system.l2cache.tags.age_task_id_blocks_1024::3         1733                       # Occupied blocks per task id
system.l2cache.tags.occ_task_id_percent::1024            1                       # Percentage of cache occupancy per task id
system.l2cache.tags.tag_accesses            112510292                       # Number of tag accesses
system.l2cache.tags.data_accesses           112510292                       # Number of data accesses
system.l2cache.tags.power_state.pwrStateResidencyTicks::UNDEFINED 1709545166000                       # Cumulative time (in ticks) in various power states
system.mem_ctrl.avgPriority_.writebacks::samples    327187.00                       # Average QoS priority value for accepted requests
system.mem_ctrl.avgPriority_.cpu.inst::samples      9765.00                       # Average QoS priority value for accepted requests
system.mem_ctrl.avgPriority_.cpu.data::samples   6504788.00                       # Average QoS priority value for accepted requests
system.mem_ctrl.priorityMinLatency       0.000000018750                       # per QoS priority minimum request to response latency (s)
system.mem_ctrl.priorityMaxLatency       0.003796120500                       # per QoS priority maximum request to response latency (s)
system.mem_ctrl.numReadWriteTurnArounds         18605                       # Number of turnarounds from READ to WRITE
system.mem_ctrl.numWriteReadTurnArounds         18605                       # Number of turnarounds from WRITE to READ
system.mem_ctrl.numStayReadState             13790606                       # Number of times bus staying in READ state
system.mem_ctrl.numStayWriteState              308868                       # Number of times bus staying in WRITE state
system.mem_ctrl.readReqs                      6523021                       # Number of read requests accepted
system.mem_ctrl.writeReqs                      327188                       # Number of write requests accepted
system.mem_ctrl.readBursts                    6523021                       # Number of controller read bursts, including those serviced by the write queue
system.mem_ctrl.writeBursts                    327188                       # Number of controller write bursts, including those merged in the write queue
system.mem_ctrl.servicedByWrQ                    8468                       # Number of controller read bursts serviced by the write queue
system.mem_ctrl.mergedWrBursts                      1                       # Number of controller write bursts merged with an existing one
system.mem_ctrl.neitherReadNorWriteReqs             0                       # Number of requests that are neither read nor write
system.mem_ctrl.avgRdQLen                        1.00                       # Average read queue length when enqueuing
system.mem_ctrl.avgWrQLen                       23.23                       # Average write queue length when enqueuing
system.mem_ctrl.numRdRetry                          0                       # Number of times read queue was full causing retry
system.mem_ctrl.numWrRetry                          0                       # Number of times write queue was full causing retry
system.mem_ctrl.readPktSize::0                      0                       # Read request sizes (log2)
system.mem_ctrl.readPktSize::1                      0                       # Read request sizes (log2)
system.mem_ctrl.readPktSize::2                      0                       # Read request sizes (log2)
system.mem_ctrl.readPktSize::3                      0                       # Read request sizes (log2)
system.mem_ctrl.readPktSize::4                      0                       # Read request sizes (log2)
system.mem_ctrl.readPktSize::5                      0                       # Read request sizes (log2)
system.mem_ctrl.readPktSize::6                6523021                       # Read request sizes (log2)
system.mem_ctrl.writePktSize::0                     0                       # Write request sizes (log2)
system.mem_ctrl.writePktSize::1                     0                       # Write request sizes (log2)
system.mem_ctrl.writePktSize::2                     0                       # Write request sizes (log2)
system.mem_ctrl.writePktSize::3                     0                       # Write request sizes (log2)
system.mem_ctrl.writePktSize::4                     0                       # Write request sizes (log2)
system.mem_ctrl.writePktSize::5                     0                       # Write request sizes (log2)
system.mem_ctrl.writePktSize::6                327188                       # Write request sizes (log2)
system.mem_ctrl.rdQLenPdf::0                  6514471                       # What read queue length does an incoming req see
system.mem_ctrl.rdQLenPdf::1                       82                       # What read queue length does an incoming req see
system.mem_ctrl.rdQLenPdf::2                        0                       # What read queue length does an incoming req see
system.mem_ctrl.rdQLenPdf::3                        0                       # What read queue length does an incoming req see
system.mem_ctrl.rdQLenPdf::4                        0                       # What read queue length does an incoming req see
system.mem_ctrl.rdQLenPdf::5                        0                       # What read queue length does an incoming req see
system.mem_ctrl.rdQLenPdf::6                        0                       # What read queue length does an incoming req see
system.mem_ctrl.rdQLenPdf::7                        0                       # What read queue length does an incoming req see
system.mem_ctrl.rdQLenPdf::8                        0                       # What read queue length does an incoming req see
system.mem_ctrl.rdQLenPdf::9                        0                       # What read queue length does an incoming req see
system.mem_ctrl.rdQLenPdf::10                       0                       # What read queue length does an incoming req see
system.mem_ctrl.rdQLenPdf::11                       0                       # What read queue length does an incoming req see
system.mem_ctrl.rdQLenPdf::12                       0                       # What read queue length does an incoming req see
system.mem_ctrl.rdQLenPdf::13                       0                       # What read queue length does an incoming req see
system.mem_ctrl.rdQLenPdf::14                       0                       # What read queue length does an incoming req see
system.mem_ctrl.rdQLenPdf::15                       0                       # What read queue length does an incoming req see
system.mem_ctrl.rdQLenPdf::16                       0                       # What read queue length does an incoming req see
system.mem_ctrl.rdQLenPdf::17                       0                       # What read queue length does an incoming req see
system.mem_ctrl.rdQLenPdf::18                       0                       # What read queue length does an incoming req see
system.mem_ctrl.rdQLenPdf::19                       0                       # What read queue length does an incoming req see
system.mem_ctrl.rdQLenPdf::20                       0                       # What read queue length does an incoming req see
system.mem_ctrl.rdQLenPdf::21                       0                       # What read queue length does an incoming req see
system.mem_ctrl.rdQLenPdf::22                       0                       # What read queue length does an incoming req see
system.mem_ctrl.rdQLenPdf::23                       0                       # What read queue length does an incoming req see
system.mem_ctrl.rdQLenPdf::24                       0                       # What read queue length does an incoming req see
system.mem_ctrl.rdQLenPdf::25                       0                       # What read queue length does an incoming req see
system.mem_ctrl.rdQLenPdf::26                       0                       # What read queue length does an incoming req see
system.mem_ctrl.rdQLenPdf::27                       0                       # What read queue length does an incoming req see
system.mem_ctrl.rdQLenPdf::28                       0                       # What read queue length does an incoming req see
system.mem_ctrl.rdQLenPdf::29                       0                       # What read queue length does an incoming req see
system.mem_ctrl.rdQLenPdf::30                       0                       # What read queue length does an incoming req see
system.mem_ctrl.rdQLenPdf::31                       0                       # What read queue length does an incoming req see
system.mem_ctrl.wrQLenPdf::0                        1                       # What write queue length does an incoming req see
system.mem_ctrl.wrQLenPdf::1                        1                       # What write queue length does an incoming req see
system.mem_ctrl.wrQLenPdf::2                        1                       # What write queue length does an incoming req see
system.mem_ctrl.wrQLenPdf::3                        1                       # What write queue length does an incoming req see
system.mem_ctrl.wrQLenPdf::4                        1                       # What write queue length does an incoming req see
system.mem_ctrl.wrQLenPdf::5                        1                       # What write queue length does an incoming req see
system.mem_ctrl.wrQLenPdf::6                        1                       # What write queue length does an incoming req see
system.mem_ctrl.wrQLenPdf::7                        1                       # What write queue length does an incoming req see
system.mem_ctrl.wrQLenPdf::8                        1                       # What write queue length does an incoming req see
system.mem_ctrl.wrQLenPdf::9                        1                       # What write queue length does an incoming req see
system.mem_ctrl.wrQLenPdf::10                       1                       # What write queue length does an incoming req see
system.mem_ctrl.wrQLenPdf::11                       1                       # What write queue length does an incoming req see
system.mem_ctrl.wrQLenPdf::12                       1                       # What write queue length does an incoming req see
system.mem_ctrl.wrQLenPdf::13                       1                       # What write queue length does an incoming req see
system.mem_ctrl.wrQLenPdf::14                       1                       # What write queue length does an incoming req see
system.mem_ctrl.wrQLenPdf::15                   14690                       # What write queue length does an incoming req see
system.mem_ctrl.wrQLenPdf::16                   14773                       # What write queue length does an incoming req see
system.mem_ctrl.wrQLenPdf::17                   18606                       # What write queue length does an incoming req see
system.mem_ctrl.wrQLenPdf::18                   18609                       # What write queue length does an incoming req see
system.mem_ctrl.wrQLenPdf::19                   18607                       # What write queue length does an incoming req see
system.mem_ctrl.wrQLenPdf::20                   18605                       # What write queue length does an incoming req see
system.mem_ctrl.wrQLenPdf::21                   18618                       # What write queue length does an incoming req see
system.mem_ctrl.wrQLenPdf::22                   18610                       # What write queue length does an incoming req see
system.mem_ctrl.wrQLenPdf::23                   18606                       # What write queue length does an incoming req see
system.mem_ctrl.wrQLenPdf::24                   18605                       # What write queue length does an incoming req see
system.mem_ctrl.wrQLenPdf::25                   18606                       # What write queue length does an incoming req see
system.mem_ctrl.wrQLenPdf::26                   18606                       # What write queue length does an incoming req see
system.mem_ctrl.wrQLenPdf::27                   18605                       # What write queue length does an incoming req see
system.mem_ctrl.wrQLenPdf::28                   18605                       # What write queue length does an incoming req see
system.mem_ctrl.wrQLenPdf::29                   18605                       # What write queue length does an incoming req see
system.mem_ctrl.wrQLenPdf::30                   18605                       # What write queue length does an incoming req see
system.mem_ctrl.wrQLenPdf::31                   18605                       # What write queue length does an incoming req see
system.mem_ctrl.wrQLenPdf::32                   18605                       # What write queue length does an incoming req see
system.mem_ctrl.wrQLenPdf::33                       1                       # What write queue length does an incoming req see
system.mem_ctrl.wrQLenPdf::34                       0                       # What write queue length does an incoming req see
system.mem_ctrl.wrQLenPdf::35                       0                       # What write queue length does an incoming req see
system.mem_ctrl.wrQLenPdf::36                       0                       # What write queue length does an incoming req see
system.mem_ctrl.wrQLenPdf::37                       0                       # What write queue length does an incoming req see
system.mem_ctrl.wrQLenPdf::38                       0                       # What write queue length does an incoming req see
system.mem_ctrl.wrQLenPdf::39                       0                       # What write queue length does an incoming req see
system.mem_ctrl.wrQLenPdf::40                       0                       # What write queue length does an incoming req see
system.mem_ctrl.wrQLenPdf::41                       0                       # What write queue length does an incoming req see
system.mem_ctrl.wrQLenPdf::42                       0                       # What write queue length does an incoming req see
system.mem_ctrl.wrQLenPdf::43                       0                       # What write queue length does an incoming req see
system.mem_ctrl.wrQLenPdf::44                       0                       # What write queue length does an incoming req see
system.mem_ctrl.wrQLenPdf::45                       0                       # What write queue length does an incoming req see
system.mem_ctrl.wrQLenPdf::46                       0                       # What write queue length does an incoming req see
system.mem_ctrl.wrQLenPdf::47                       0                       # What write queue length does an incoming req see
system.mem_ctrl.wrQLenPdf::48                       0                       # What write queue length does an incoming req see
system.mem_ctrl.wrQLenPdf::49                       0                       # What write queue length does an incoming req see
system.mem_ctrl.wrQLenPdf::50                       0                       # What write queue length does an incoming req see
system.mem_ctrl.wrQLenPdf::51                       0                       # What write queue length does an incoming req see
system.mem_ctrl.wrQLenPdf::52                       0                       # What write queue length does an incoming req see
system.mem_ctrl.wrQLenPdf::53                       0                       # What write queue length does an incoming req see
system.mem_ctrl.wrQLenPdf::54                       0                       # What write queue length does an incoming req see
system.mem_ctrl.wrQLenPdf::55                       0                       # What write queue length does an incoming req see
system.mem_ctrl.wrQLenPdf::56                       0                       # What write queue length does an incoming req see
system.mem_ctrl.wrQLenPdf::57                       0                       # What write queue length does an incoming req see
system.mem_ctrl.wrQLenPdf::58                       0                       # What write queue length does an incoming req see
system.mem_ctrl.wrQLenPdf::59                       0                       # What write queue length does an incoming req see
system.mem_ctrl.wrQLenPdf::60                       0                       # What write queue length does an incoming req see
system.mem_ctrl.wrQLenPdf::61                       0                       # What write queue length does an incoming req see
system.mem_ctrl.wrQLenPdf::62                       0                       # What write queue length does an incoming req see
system.mem_ctrl.wrQLenPdf::63                       0                       # What write queue length does an incoming req see
system.mem_ctrl.rdPerTurnAround::samples        18605                       # Reads before turning the bus around for writes
system.mem_ctrl.rdPerTurnAround::mean      350.067132                       # Reads before turning the bus around for writes
system.mem_ctrl.rdPerTurnAround::gmean      59.171391                       # Reads before turning the bus around for writes
system.mem_ctrl.rdPerTurnAround::stdev     854.566628                       # Reads before turning the bus around for writes
system.mem_ctrl.rdPerTurnAround::0-255          15049     80.89%     80.89% # Reads before turning the bus around for writes
system.mem_ctrl.rdPerTurnAround::256-511          452      2.43%     83.32% # Reads before turning the bus around for writes
system.mem_ctrl.rdPerTurnAround::512-767           55      0.30%     83.61% # Reads before turning the bus around for writes
system.mem_ctrl.rdPerTurnAround::768-1023          662      3.56%     87.17% # Reads before turning the bus around for writes
system.mem_ctrl.rdPerTurnAround::1024-1279           65      0.35%     87.52% # Reads before turning the bus around for writes
system.mem_ctrl.rdPerTurnAround::1280-1535          134      0.72%     88.24% # Reads before turning the bus around for writes
system.mem_ctrl.rdPerTurnAround::1536-1791         1743      9.37%     97.61% # Reads before turning the bus around for writes
system.mem_ctrl.rdPerTurnAround::1792-2047            1      0.01%     97.61% # Reads before turning the bus around for writes
system.mem_ctrl.rdPerTurnAround::2048-2303            3      0.02%     97.63% # Reads before turning the bus around for writes
system.mem_ctrl.rdPerTurnAround::2304-2559           24      0.13%     97.76% # Reads before turning the bus around for writes
system.mem_ctrl.rdPerTurnAround::2560-2815            3      0.02%     97.77% # Reads before turning the bus around for writes
system.mem_ctrl.rdPerTurnAround::2816-3071            2      0.01%     97.79% # Reads before turning the bus around for writes
system.mem_ctrl.rdPerTurnAround::3328-3583            2      0.01%     97.80% # Reads before turning the bus around for writes
system.mem_ctrl.rdPerTurnAround::3840-4095            1      0.01%     97.80% # Reads before turning the bus around for writes
system.mem_ctrl.rdPerTurnAround::4096-4351           15      0.08%     97.88% # Reads before turning the bus around for writes
system.mem_ctrl.rdPerTurnAround::4352-4607            7      0.04%     97.92% # Reads before turning the bus around for writes
system.mem_ctrl.rdPerTurnAround::4608-4863            4      0.02%     97.94% # Reads before turning the bus around for writes
system.mem_ctrl.rdPerTurnAround::4864-5119          367      1.97%     99.91% # Reads before turning the bus around for writes
system.mem_ctrl.rdPerTurnAround::5120-5375           16      0.09%    100.00% # Reads before turning the bus around for writes
system.mem_ctrl.rdPerTurnAround::total          18605                       # Reads before turning the bus around for writes
system.mem_ctrl.wrPerTurnAround::samples        18605                       # Writes before turning the bus around for reads
system.mem_ctrl.wrPerTurnAround::mean       17.585004                       # Writes before turning the bus around for reads
system.mem_ctrl.wrPerTurnAround::gmean      17.565295                       # Writes before turning the bus around for reads
[...]
system.mem_ctrl.requestorReadRate::.cpu.data 243518826.106288433075                       # Per-requestor bytes read from memory rate (Bytes/sec)
system.mem_ctrl.requestorWriteRate::.writebacks 12248179.466935476288                       # Per-requestor bytes write to memory rate (Bytes/sec)
system.mem_ctrl.requestorReadAccesses::.cpu.inst         9765                       # Per-requestor read serviced memory accesses
system.mem_ctrl.requestorReadAccesses::.cpu.data      6513256                       # Per-requestor read serviced memory accesses
system.mem_ctrl.requestorWriteAccesses::.writebacks       327188                       # Per-requestor write serviced memory accesses
system.mem_ctrl.requestorReadTotalLat::.cpu.inst    263560000                       # Per-requestor read total memory access latency
system.mem_ctrl.requestorReadTotalLat::.cpu.data 162253316750                       # Per-requestor read total memory access latency
system.mem_ctrl.requestorWriteTotalLat::.writebacks 37819488593000                       # Per-requestor write total memory access latency
system.mem_ctrl.requestorReadAvgLat::.cpu.inst     26990.27                       # Per-requestor read average memory access latency
system.mem_ctrl.requestorReadAvgLat::.cpu.data     24911.25                       # Per-requestor read average memory access latency
system.mem_ctrl.requestorWriteAvgLat::.writebacks 115589473.31                       # Per-requestor write average memory access latency
system.mem_ctrl.dram.bytes_read::.cpu.inst       624960                       # Number of bytes read from this memory
system.mem_ctrl.dram.bytes_read::.cpu.data    416848384                       # Number of bytes read from this memory
system.mem_ctrl.dram.bytes_read::total      417473344                       # Number of bytes read from this memory
system.mem_ctrl.dram.bytes_inst_read::.cpu.inst       624960                       # Number of instructions bytes read from this memory
system.mem_ctrl.dram.bytes_inst_read::total       624960                       # Number of instructions bytes read from this memory
system.mem_ctrl.dram.bytes_written::.writebacks     20940032                       # Number of bytes written to this memory
system.mem_ctrl.dram.bytes_written::total     20940032                       # Number of bytes written to this memory
system.mem_ctrl.dram.num_reads::.cpu.inst         9765                       # Number of read requests responded to by this memory
system.mem_ctrl.dram.num_reads::.cpu.data      6513256                       # Number of read requests responded to by this memory
system.mem_ctrl.dram.num_reads::total         6523021                       # Number of read requests responded to by this memory
system.mem_ctrl.dram.num_writes::.writebacks       327188                       # Number of write requests responded to by this memory
system.mem_ctrl.dram.num_writes::total         327188                       # Number of write requests responded to by this memory
system.mem_ctrl.dram.bw_read::.cpu.inst        365571                       # Total read bandwidth from this memory (bytes/s)
system.mem_ctrl.dram.bw_read::.cpu.data     243835841                       # Total read bandwidth from this memory (bytes/s)
system.mem_ctrl.dram.bw_read::total         244201412                       # Total read bandwidth from this memory (bytes/s)
system.mem_ctrl.dram.bw_inst_read::.cpu.inst       365571                       # Instruction read bandwidth from this memory (bytes/s)
system.mem_ctrl.dram.bw_inst_read::total       365571                       # Instruction read bandwidth from this memory (bytes/s)
system.mem_ctrl.dram.bw_write::.writebacks     12248891                       # Write bandwidth from this memory (bytes/s)
system.mem_ctrl.dram.bw_write::total         12248891                       # Write bandwidth from this memory (bytes/s)
system.mem_ctrl.dram.bw_total::.writebacks     12248891                       # Total bandwidth to/from this memory (bytes/s)
system.mem_ctrl.dram.bw_total::.cpu.inst       365571                       # Total bandwidth to/from this memory (bytes/s)
system.mem_ctrl.dram.bw_total::.cpu.data    243835841                       # Total bandwidth to/from this memory (bytes/s)
system.mem_ctrl.dram.bw_total::total        256450303                       # Total bandwidth to/from this memory (bytes/s)
system.mem_ctrl.dram.readBursts               6514553                       # Number of DRAM read bursts
system.mem_ctrl.dram.writeBursts               327169                       # Number of DRAM write bursts
system.mem_ctrl.dram.perBankRdBursts::0        435105                       # Per bank write bursts
system.mem_ctrl.dram.perBankRdBursts::1        391227                       # Per bank write bursts
system.mem_ctrl.dram.perBankRdBursts::2        381351                       # Per bank write bursts
system.mem_ctrl.dram.perBankRdBursts::3        381407                       # Per bank write bursts
system.mem_ctrl.dram.perBankRdBursts::4        382368                       # Per bank write bursts
system.mem_ctrl.dram.perBankRdBursts::5        405888                       # Per bank write bursts
system.mem_ctrl.dram.perBankRdBursts::6        440449                       # Per bank write bursts
system.mem_ctrl.dram.perBankRdBursts::7        407521                       # Per bank write bursts
system.mem_ctrl.dram.perBankRdBursts::8        437526                       # Per bank write bursts
system.mem_ctrl.dram.perBankRdBursts::9        384700                       # Per bank write bursts
system.mem_ctrl.dram.perBankRdBursts::10       382035                       # Per bank write bursts
system.mem_ctrl.dram.perBankRdBursts::11       381215                       # Per bank write bursts
system.mem_ctrl.dram.perBankRdBursts::12       398169                       # Per bank write bursts
system.mem_ctrl.dram.perBankRdBursts::13       434323                       # Per bank write bursts
system.mem_ctrl.dram.perBankRdBursts::14       434867                       # Per bank write bursts
system.mem_ctrl.dram.perBankRdBursts::15       436402                       # Per bank write bursts
system.mem_ctrl.dram.perBankWrBursts::0          7508                       # Per bank write bursts
system.mem_ctrl.dram.perBankWrBursts::1          6909                       # Per bank write bursts
system.mem_ctrl.dram.perBankWrBursts::2          6895                       # Per bank write bursts
system.mem_ctrl.dram.perBankWrBursts::3          6972                       # Per bank write bursts
system.mem_ctrl.dram.perBankWrBursts::4          8029                       # Per bank write bursts
system.mem_ctrl.dram.perBankWrBursts::5         31145                       # Per bank write bursts
system.mem_ctrl.dram.perBankWrBursts::6         52867                       # Per bank write bursts
system.mem_ctrl.dram.perBankWrBursts::7          8357                       # Per bank write bursts
system.mem_ctrl.dram.perBankWrBursts::8         43828                       # Per bank write bursts
system.mem_ctrl.dram.perBankWrBursts::9         58832                       # Per bank write bursts
system.mem_ctrl.dram.perBankWrBursts::10        60042                       # Per bank write bursts
system.mem_ctrl.dram.perBankWrBursts::11         7392                       # Per bank write bursts
system.mem_ctrl.dram.perBankWrBursts::12         6513                       # Per bank write bursts
system.mem_ctrl.dram.perBankWrBursts::13         6932                       # Per bank write bursts
system.mem_ctrl.dram.perBankWrBursts::14         6792                       # Per bank write bursts
system.mem_ctrl.dram.perBankWrBursts::15         8156                       # Per bank write bursts
system.mem_ctrl.dram.totQLat              40369008000                       # Total ticks spent queuing
system.mem_ctrl.dram.totBusLat            32572765000                       # Total ticks spent in databus transfers
system.mem_ctrl.dram.totMemAccLat        162516876750                       # Total ticks spent from burst creation until serviced by the DRAM
system.mem_ctrl.dram.avgQLat                  6196.74                       # Average queueing delay per DRAM burst
system.mem_ctrl.dram.avgBusLat                5000.00                       # Average bus latency per DRAM burst
system.mem_ctrl.dram.avgMemAccLat            24946.74                       # Average memory access latency per DRAM burst
system.mem_ctrl.dram.readRowHits              5565686                       # Number of row buffer hits during reads
system.mem_ctrl.dram.writeRowHits              252721                       # Number of row buffer hits during writes
system.mem_ctrl.dram.readRowHitRate             85.43                       # Row buffer hit rate for reads
system.mem_ctrl.dram.writeRowHitRate            77.24                       # Row buffer hit rate for writes
system.mem_ctrl.dram.bytesPerActivate::samples      1023311                       # Bytes accessed per row activation
system.mem_ctrl.dram.bytesPerActivate::mean   427.894847                       # Bytes accessed per row activation
system.mem_ctrl.dram.bytesPerActivate::gmean   263.227510                       # Bytes accessed per row activation
system.mem_ctrl.dram.bytesPerActivate::stdev   359.725476                       # Bytes accessed per row activation
system.mem_ctrl.dram.bytesPerActivate::0-127       278171     27.18%     27.18% # Bytes accessed per row activation
system.mem_ctrl.dram.bytesPerActivate::128-255       160327     15.67%     42.85% # Bytes accessed per row activation
system.mem_ctrl.dram.bytesPerActivate::256-383        99622      9.74%     52.59% # Bytes accessed per row activation
system.mem_ctrl.dram.bytesPerActivate::384-511        94374      9.22%     61.81% # Bytes accessed per row activation
system.mem_ctrl.dram.bytesPerActivate::512-639        19259      1.88%     63.69% # Bytes accessed per row activation
system.mem_ctrl.dram.bytesPerActivate::640-767       170845     16.70%     80.39% # Bytes accessed per row activation
system.mem_ctrl.dram.bytesPerActivate::768-895         9488      0.93%     81.31% # Bytes accessed per row activation
system.mem_ctrl.dram.bytesPerActivate::896-1023         8846      0.86%     82.18% # Bytes accessed per row activation
system.mem_ctrl.dram.bytesPerActivate::1024-1151       182379     17.82%    100.00% # Bytes accessed per row activation
system.mem_ctrl.dram.bytesPerActivate::total      1023311                       # Bytes accessed per row activation
system.mem_ctrl.dram.bytesRead              416931392                       # Total number of bytes read from DRAM
system.mem_ctrl.dram.bytesWritten            20938816                       # Total number of bytes written to DRAM
system.mem_ctrl.dram.avgRdBW               243.884397                       # Average DRAM read bandwidth in MiBytes/s
system.mem_ctrl.dram.avgWrBW                12.248179                       # Average DRAM write bandwidth in MiBytes/s
system.mem_ctrl.dram.peakBW                  12800.00                       # Theoretical peak bandwidth in MiByte/s
system.mem_ctrl.dram.busUtil                     2.00                       # Data bus utilization in percentage
system.mem_ctrl.dram.busUtilRead                 1.91                       # Data bus utilization in percentage for reads
system.mem_ctrl.dram.busUtilWrite                0.10                       # Data bus utilization in percentage for writes
system.mem_ctrl.dram.pageHitRate                85.04                       # Row buffer hit rate, read and write combined
system.mem_ctrl.dram.power_state.pwrStateResidencyTicks::UNDEFINED 1709545166000                       # Cumulative time (in ticks) in various power states
system.mem_ctrl.dram.rank0.actEnergy       2877619920                       # Energy for activate commands per rank (pJ)
system.mem_ctrl.dram.rank0.preEnergy       1529483670                       # Energy for precharge commands per rank (pJ)
system.mem_ctrl.dram.rank0.readEnergy     23028756240                       # Energy for read commands per rank (pJ)
system.mem_ctrl.dram.rank0.writeEnergy      671720040                       # Energy for write commands per rank (pJ)
system.mem_ctrl.dram.rank0.refreshEnergy 134949743760.000015                       # Energy for refresh commands per rank (pJ)
system.mem_ctrl.dram.rank0.actBackEnergy 559044555540                       # Energy for active background per rank (pJ)
system.mem_ctrl.dram.rank0.preBackEnergy 185690981280                       # Energy for precharge background per rank (pJ)
system.mem_ctrl.dram.rank0.actPowerDownEnergy            0                       # Energy for active power-down per rank (pJ)
system.mem_ctrl.dram.rank0.prePowerDownEnergy            0                       # Energy for precharge power-down per rank (pJ)
system.mem_ctrl.dram.rank0.selfRefreshEnergy            0                       # Energy for self refresh per rank (pJ)
system.mem_ctrl.dram.rank0.totalEnergy   907792860450                       # Total energy per rank (pJ)
system.mem_ctrl.dram.rank0.averagePower    531.014260                       # Core power per rank (mW)
system.mem_ctrl.dram.rank0.totalIdleTime            0                       # Total Idle time Per DRAM Rank
system.mem_ctrl.dram.rank0.pwrStateTime::IDLE 477512487000                       # Time in different power states
system.mem_ctrl.dram.rank0.pwrStateTime::REF  57085340000                       # Time in different power states
system.mem_ctrl.dram.rank0.pwrStateTime::SREF            0                       # Time in different power states
system.mem_ctrl.dram.rank0.pwrStateTime::PRE_PDN            0                       # Time in different power states
system.mem_ctrl.dram.rank0.pwrStateTime::ACT 1174947339000                       # Time in different power states
system.mem_ctrl.dram.rank0.pwrStateTime::ACT_PDN            0                       # Time in different power states
system.mem_ctrl.dram.rank1.actEnergy       4428849180                       # Energy for activate commands per rank (pJ)
system.mem_ctrl.dram.rank1.preEnergy       2353981575                       # Energy for precharge commands per rank (pJ)
system.mem_ctrl.dram.rank1.readEnergy     23485152180                       # Energy for read commands per rank (pJ)
system.mem_ctrl.dram.rank1.writeEnergy     1036102140                       # Energy for write commands per rank (pJ)
system.mem_ctrl.dram.rank1.refreshEnergy 134949743760.000015                       # Energy for refresh commands per rank (pJ)
system.mem_ctrl.dram.rank1.actBackEnergy 599882682630                       # Energy for active background per rank (pJ)
system.mem_ctrl.dram.rank1.preBackEnergy 151300979520                       # Energy for precharge background per rank (pJ)
system.mem_ctrl.dram.rank1.actPowerDownEnergy            0                       # Energy for active power-down per rank (pJ)
system.mem_ctrl.dram.rank1.prePowerDownEnergy            0                       # Energy for precharge power-down per rank (pJ)
system.mem_ctrl.dram.rank1.selfRefreshEnergy            0                       # Energy for self refresh per rank (pJ)
system.mem_ctrl.dram.rank1.totalEnergy   917437490985                       # Total energy per rank (pJ)
system.mem_ctrl.dram.rank1.averagePower    536.655895                       # Core power per rank (mW)
system.mem_ctrl.dram.rank1.totalIdleTime            0                       # Total Idle time Per DRAM Rank
system.mem_ctrl.dram.rank1.pwrStateTime::IDLE 385433033250                       # Time in different power states
system.mem_ctrl.dram.rank1.pwrStateTime::REF  57085340000                       # Time in different power states
system.mem_ctrl.dram.rank1.pwrStateTime::SREF            0                       # Time in different power states
system.mem_ctrl.dram.rank1.pwrStateTime::PRE_PDN            0                       # Time in different power states
system.mem_ctrl.dram.rank1.pwrStateTime::ACT 1267026792750                       # Time in different power states
system.mem_ctrl.dram.rank1.pwrStateTime::ACT_PDN            0                       # Time in different power states
system.mem_ctrl.power_state.pwrStateResidencyTicks::UNDEFINED 1709545166000                       # Cumulative time (in ticks) in various power states
system.membus.trans_dist::ReadResp            6431436                       # Transaction distribution
system.membus.trans_dist::WritebackDirty       327188                       # Transaction distribution
system.membus.trans_dist::CleanEvict          6191630                       # Transaction distribution
system.membus.trans_dist::ReadExReq             91585                       # Transaction distribution
system.membus.trans_dist::ReadExResp            91585                       # Transaction distribution
system.membus.trans_dist::ReadSharedReq       6431436                       # Transaction distribution
system.membus.pkt_count_system.l2cache.mem_side_port::system.mem_ctrl.port     19564860                       # Packet count per connected requestor and responder (bytes)
system.membus.pkt_count_system.l2cache.mem_side_port::total     19564860                       # Packet count per connected requestor and responder (bytes)
system.membus.pkt_count::total               19564860                       # Packet count per connected requestor and responder (bytes)
system.membus.pkt_size_system.l2cache.mem_side_port::system.mem_ctrl.port    438413376                       # Cumulative packet size per connected requestor and responder (bytes)
system.membus.pkt_size_system.l2cache.mem_side_port::total    438413376                       # Cumulative packet size per connected requestor and responder (bytes)
system.membus.pkt_size::total               438413376                       # Cumulative packet size per connected requestor and responder (bytes)
system.membus.snoops                                0                       # Total snoops (count)
system.membus.snoopTraffic                          0                       # Total snoop traffic (bytes)
system.membus.snoop_fanout::samples           6523021                       # Request fanout histogram
system.membus.snoop_fanout::mean                    0                       # Request fanout histogram
system.membus.snoop_fanout::stdev                   0                       # Request fanout histogram
system.membus.snoop_fanout::underflows              0      0.00%      0.00% # Request fanout histogram
system.membus.snoop_fanout::0                 6523021    100.00%    100.00% # Request fanout histogram
system.membus.snoop_fanout::1                       0      0.00%    100.00% # Request fanout histogram
system.membus.snoop_fanout::overflows               0      0.00%    100.00% # Request fanout histogram
system.membus.snoop_fanout::min_value               0                       # Request fanout histogram
system.membus.snoop_fanout::max_value               0                       # Request fanout histogram
system.membus.snoop_fanout::total             6523021                       # Request fanout histogram
system.membus.power_state.pwrStateResidencyTicks::UNDEFINED 1709545166000                       # Cumulative time (in ticks) in various power states
system.membus.reqLayer2.occupancy         14350591000                       # Layer occupancy (ticks)
system.membus.reqLayer2.utilization               0.8                       # Layer utilization (%)
system.membus.respLayer0.occupancy        34518139500                       # Layer occupancy (ticks)
system.membus.respLayer0.utilization              2.0                       # Layer utilization (%)

---------- End Simulation Statistics   ----------
