
---------- Begin Simulation Statistics ----------
final_tick                               2616693667000                       # Number of ticks from beginning of simulation (restored from checkpoints and never reset)
host_inst_rate                                 453410                       # Simulator instruction rate (inst/s)
host_mem_usage                                 665176                       # Number of bytes of host memory used
host_op_rate                                   770732                       # Simulator op (including micro ops) rate (op/s)
host_seconds                                  1269.17                       # Real time elapsed on the host
host_tick_rate                             2061733908                       # Simulator tick rate (ticks/s)
sim_freq                                 1000000000000                       # Frequency of simulated ticks
sim_insts                                   575454667                       # Number of instructions simulated
sim_ops                                     978190943                       # Number of ops (including micro ops) simulated
sim_seconds                                  2.616694                       # Number of seconds simulated
sim_ticks                                2616693667000                       # Number of ticks simulated
system.cpu.Branches                          31851453                       # Number of branches fetched
system.cpu.committedInsts                   575454667                       # Number of instructions committed
system.cpu.committedOps                     978190943                       # Number of ops (including micro ops) committed
system.cpu.idle_fraction                     0.000000                       # Percentage of idle cycles
system.cpu.not_idle_fraction                 1.000000                       # Percentage of non-idle cycles
system.cpu.numCycles                       2616693667                       # number of cpu cycles simulated
system.cpu.numWorkItemsCompleted                    0                       # number of work items this cpu completed
system.cpu.numWorkItemsStarted                      0                       # number of work items this cpu started
system.cpu.num_busy_cycles               2616693666.999000                       # Number of busy cycles
system.cpu.num_cc_register_reads            155141565                       # number of times the CC registers were read
system.cpu.num_cc_register_writes           162654620                       # number of times the CC registers were written
system.cpu.num_conditional_control_insts     29705130                       # number of instructions that are conditional controls
system.cpu.num_fp_alu_accesses              723696043                       # Number of float alu accesses
system.cpu.num_fp_insts                     723696043                       # number of float instructions
system.cpu.num_fp_register_reads           1022020909                       # number of times the floating registers were read
system.cpu.num_fp_register_writes           620017342                       # number of times the floating registers were written
system.cpu.num_func_calls                     1608984                       # number of times a function call or return occured
system.cpu.num_idle_cycles                   0.001000                       # Number of idle cycles
system.cpu.num_int_alu_accesses             539304698                       # Number of integer alu accesses
system.cpu.num_int_insts                    539304698                       # number of integer instructions
system.cpu.num_int_register_reads          1243037615                       # number of times the integer registers were read
system.cpu.num_int_register_writes          221683354                       # number of times the integer registers were written
system.cpu.num_load_insts                   187986149                       # Number of load instructions
system.cpu.num_mem_refs                     292192202                       # number of memory refs
system.cpu.num_store_insts                  104206053                       # Number of store instructions
system.cpu.num_vec_alu_accesses                     0                       # Number of vector alu accesses
system.cpu.num_vec_insts                            0                       # number of vector instructions
system.cpu.num_vec_register_reads                   0                       # number of times the vector registers were read
system.cpu.num_vec_register_writes                  0                       # number of times the vector registers were written
system.cpu.op_class::No_OpClass               1700260      0.17%      0.17% # Class of executed instruction
system.cpu.op_class::IntAlu                 388213720     39.69%     39.86% # Class of executed instruction
system.cpu.op_class::IntMult                  1511480      0.15%     40.02% # Class of executed instruction
system.cpu.op_class::IntDiv                    141309      0.01%     40.03% # Class of executed instruction
system.cpu.op_class::FloatAdd                81130357      8.29%     48.32% # Class of executed instruction
system.cpu.op_class::FloatCmp                       0      0.00%     48.32% # Class of executed instruction
system.cpu.op_class::FloatCvt                       0      0.00%     48.32% # Class of executed instruction
system.cpu.op_class::FloatMult                      0      0.00%     48.32% # Class of executed instruction
system.cpu.op_class::FloatMultAcc                   0      0.00%     48.32% # Class of executed instruction
system.cpu.op_class::FloatDiv                       0      0.00%     48.32% # Class of executed instruction
system.cpu.op_class::FloatMisc                      0      0.00%     48.32% # Class of executed instruction
system.cpu.op_class::FloatSqrt                      0      0.00%     48.32% # Class of executed instruction
system.cpu.op_class::SimdAdd                   491562      0.05%     48.37% # Class of executed instruction
system.cpu.op_class::SimdAddAcc                     0      0.00%     48.37% # Class of executed instruction
system.cpu.op_class::SimdAlu                  2949683      0.30%     48.68% # Class of executed instruction
system.cpu.op_class::SimdCmp                       18      0.00%     48.68% # Class of executed instruction
system.cpu.op_class::SimdCvt                      816      0.00%     48.68% # Class of executed instruction
system.cpu.op_class::SimdMisc                 2637173      0.27%     48.95% # Class of executed instruction
system.cpu.op_class::SimdMult                  245760      0.03%     48.97% # Class of executed instruction
system.cpu.op_class::SimdMultAcc                    0      0.00%     48.97% # Class of executed instruction
system.cpu.op_class::SimdShift                 368643      0.04%     49.01% # Class of executed instruction
system.cpu.op_class::SimdShiftAcc                   0      0.00%     49.01% # Class of executed instruction
system.cpu.op_class::SimdDiv                        0      0.00%     49.01% # Class of executed instruction
system.cpu.op_class::SimdSqrt                       0      0.00%     49.01% # Class of executed instruction
system.cpu.op_class::SimdFloatAdd           119030165     12.17%     61.18% # Class of executed instruction
system.cpu.op_class::SimdFloatAlu                   0      0.00%     61.18% # Class of executed instruction
system.cpu.op_class::SimdFloatCmp                   0      0.00%     61.18% # Class of executed instruction
system.cpu.op_class::SimdFloatCvt             1852644      0.19%     61.37% # Class of executed instruction
system.cpu.op_class::SimdFloatDiv                  70      0.00%     61.37% # Class of executed instruction
system.cpu.op_class::SimdFloatMisc                  0      0.00%     61.37% # Class of executed instruction
system.cpu.op_class::SimdFloatMult           85725170      8.76%     70.13% # Class of executed instruction
system.cpu.op_class::SimdFloatMultAcc               0      0.00%     70.13% # Class of executed instruction
system.cpu.op_class::SimdFloatSqrt                  6      0.00%     70.13% # Class of executed instruction
system.cpu.op_class::SimdReduceAdd                  0      0.00%     70.13% # Class of executed instruction
system.cpu.op_class::SimdReduceAlu                  0      0.00%     70.13% # Class of executed instruction
system.cpu.op_class::SimdReduceCmp                  0      0.00%     70.13% # Class of executed instruction
system.cpu.op_class::SimdFloatReduceAdd             0      0.00%     70.13% # Class of executed instruction
system.cpu.op_class::SimdFloatReduceCmp             0      0.00%     70.13% # Class of executed instruction
system.cpu.op_class::SimdAes                        0      0.00%     70.13% # Class of executed instruction
system.cpu.op_class::SimdAesMix                     0      0.00%     70.13% # Class of executed instruction
system.cpu.op_class::SimdSha1Hash                   0      0.00%     70.13% # Class of executed instruction
system.cpu.op_class::SimdSha1Hash2                  0      0.00%     70.13% # Class of executed instruction
system.cpu.op_class::SimdSha256Hash                 0      0.00%     70.13% # Class of executed instruction
system.cpu.op_class::SimdSha256Hash2                0      0.00%     70.13% # Class of executed instruction
system.cpu.op_class::SimdShaSigma2                  0      0.00%     70.13% # Class of executed instruction
system.cpu.op_class::SimdShaSigma3                  0      0.00%     70.13% # Class of executed instruction
system.cpu.op_class::SimdPredAlu                    0      0.00%     70.13% # Class of executed instruction
system.cpu.op_class::MemRead                  5927088      0.61%     70.74% # Class of executed instruction
system.cpu.op_class::MemWrite                 1856497      0.19%     70.93% # Class of executed instruction
system.cpu.op_class::FloatMemRead           182059061     18.61%     89.54% # Class of executed instruction
system.cpu.op_class::FloatMemWrite          102349556     10.46%    100.00% # Class of executed instruction
system.cpu.op_class::IprAccess                      0      0.00%    100.00% # Class of executed instruction
system.cpu.op_class::InstPrefetch                   0      0.00%    100.00% # Class of executed instruction
system.cpu.op_class::total                  978191038                       # Class of executed instruction
system.cpu.workload.numSyscalls                    72                       # Number of system calls
system.l2bus.snoop_filter.hit_multi_requests            0                       # Number of requests hitting in the snoop filter with multiple (>1) holders of the requested data.
system.l2bus.snoop_filter.hit_multi_snoops            0                       # Number of snoops hitting in the snoop filter with multiple (>1) holders of the requested data.
system.l2bus.snoop_filter.hit_single_requests      7979967                       # Number of requests hitting in the snoop filter with a single holder of the requested data.
system.l2bus.snoop_filter.hit_single_snoops        51337                       # Number of snoops hitting in the snoop filter with a single holder of the requested data.
system.l2bus.snoop_filter.tot_requests       15961214                       # Total number of requests made to the snoop filter.
system.l2bus.snoop_filter.tot_snoops            51337                       # Total number of snoops made to the snoop filter.
system.membus.snoop_filter.hit_multi_requests            0                       # Number of requests hitting in the snoop filter with multiple (>1) holders of the requested data.
system.membus.snoop_filter.hit_multi_snoops            0                       # Number of snoops hitting in the snoop filter with multiple (>1) holders of the requested data.
system.membus.snoop_filter.hit_single_requests      2913859                       # Number of requests hitting in the snoop filter with a single holder of the requested data.
system.membus.snoop_filter.hit_single_snoops            0                       # Number of snoops hitting in the snoop filter with a single holder of the requested data.
system.membus.snoop_filter.tot_requests       5835935                       # Total number of requests made to the snoop filter.
system.membus.snoop_filter.tot_snoops               0                       # Total number of snoops made to the snoop filter.
system.clk_domain.clock                          1000                       # Clock period in ticks
system.clk_domain.voltage_domain.voltage            1                       # Voltage in Volts
system.cpu.dcache.demand_hits::.cpu.data    284222134                       # number of demand (read+write) hits
system.cpu.dcache.demand_hits::total        284222134                       # number of demand (read+write) hits
system.cpu.dcache.overall_hits::.cpu.data    284222134                       # number of overall hits
system.cpu.dcache.overall_hits::total       284222134                       # number of overall hits
system.cpu.dcache.demand_misses::.cpu.data      7970134                       # number of demand (read+write) misses
system.cpu.dcache.demand_misses::total        7970134                       # number of demand (read+write) misses
system.cpu.dcache.overall_misses::.cpu.data      7970134                       # number of overall misses
system.cpu.dcache.overall_misses::total       7970134                       # number of overall misses
system.cpu.dcache.demand_miss_latency::.cpu.data 435839999000                       # number of demand (read+write) miss cycles
system.cpu.dcache.demand_miss_latency::total 435839999000                       # number of demand (read+write) miss cycles
system.cpu.dcache.overall_miss_latency::.cpu.data 435839999000                       # number of overall miss cycles
system.cpu.dcache.overall_miss_latency::total 435839999000                       # number of overall miss cycles
system.cpu.dcache.demand_accesses::.cpu.data    292192268                       # number of demand (read+write) accesses
system.cpu.dcache.demand_accesses::total    292192268                       # number of demand (read+write) accesses
system.cpu.dcache.overall_accesses::.cpu.data    292192268                       # number of overall (read+write) accesses
system.cpu.dcache.overall_accesses::total    292192268                       # number of overall (read+write) accesses
system.cpu.dcache.demand_miss_rate::.cpu.data     0.027277                       # miss rate for demand accesses
system.cpu.dcache.demand_miss_rate::total     0.027277                       # miss rate for demand accesses
system.cpu.dcache.overall_miss_rate::.cpu.data     0.027277                       # miss rate for overall accesses
system.cpu.dcache.overall_miss_rate::total     0.027277                       # miss rate for overall accesses
system.cpu.dcache.demand_avg_miss_latency::.cpu.data 54684.149476                       # average overall miss latency
system.cpu.dcache.demand_avg_miss_latency::total 54684.149476                       # average overall miss latency
system.cpu.dcache.overall_avg_miss_latency::.cpu.data 54684.149476                       # average overall miss latency
system.cpu.dcache.overall_avg_miss_latency::total 54684.149476                       # average overall miss latency
system.cpu.dcache.blocked_cycles::no_mshrs            0                       # number of cycles access was blocked
system.cpu.dcache.blocked_cycles::no_targets            0                       # number of cycles access was blocked
system.cpu.dcache.blocked::no_mshrs                 0                       # number of cycles access was blocked
system.cpu.dcache.blocked::no_targets               0                       # number of cycles access was blocked
system.cpu.dcache.avg_blocked_cycles::no_mshrs          nan                       # average number of cycles each access was blocked
system.cpu.dcache.avg_blocked_cycles::no_targets          nan                       # average number of cycles each access was blocked
system.cpu.dcache.writebacks::.writebacks      6544471                       # number of writebacks
system.cpu.dcache.writebacks::total           6544471                       # number of writebacks
system.cpu.dcache.demand_mshr_misses::.cpu.data      7970134                       # number of demand (read+write) MSHR misses
system.cpu.dcache.demand_mshr_misses::total      7970134                       # number of demand (read+write) MSHR misses
system.cpu.dcache.overall_mshr_misses::.cpu.data      7970134                       # number of overall MSHR misses
system.cpu.dcache.overall_mshr_misses::total      7970134                       # number of overall MSHR misses
system.cpu.dcache.demand_mshr_miss_latency::.cpu.data 419899731000                       # number of demand (read+write) MSHR miss cycles
system.cpu.dcache.demand_mshr_miss_latency::total 419899731000                       # number of demand (read+write) MSHR miss cycles
system.cpu.dcache.overall_mshr_miss_latency::.cpu.data 419899731000                       # number of overall MSHR miss cycles
system.cpu.dcache.overall_mshr_miss_latency::total 419899731000                       # number of overall MSHR miss cycles
system.cpu.dcache.demand_mshr_miss_rate::.cpu.data     0.027277                       # mshr miss rate for demand accesses
system.cpu.dcache.demand_mshr_miss_rate::total     0.027277                       # mshr miss rate for demand accesses
system.cpu.dcache.overall_mshr_miss_rate::.cpu.data     0.027277                       # mshr miss rate for overall accesses
system.cpu.dcache.overall_mshr_miss_rate::total     0.027277                       # mshr miss rate for overall accesses
system.cpu.dcache.demand_avg_mshr_miss_latency::.cpu.data 52684.149476                       # average overall mshr miss latency
system.cpu.dcache.demand_avg_mshr_miss_latency::total 52684.149476                       # average overall mshr miss latency
system.cpu.dcache.overall_avg_mshr_miss_latency::.cpu.data 52684.149476                       # average overall mshr miss latency
system.cpu.dcache.overall_avg_mshr_miss_latency::total 52684.149476                       # average overall mshr miss latency
system.cpu.dcache.replacements                7969110                       # number of replacements
system.cpu.dcache.ReadReq_hits::.cpu.data    184112552                       # number of ReadReq hits
system.cpu.dcache.ReadReq_hits::total       184112552                       # number of ReadReq hits
system.cpu.dcache.ReadReq_misses::.cpu.data      3873643                       # number of ReadReq misses
system.cpu.dcache.ReadReq_misses::total       3873643                       # number of ReadReq misses
system.cpu.dcache.ReadReq_miss_latency::.cpu.data 272385111000                       # number of ReadReq miss cycles
system.cpu.dcache.ReadReq_miss_latency::total 272385111000                       # number of ReadReq miss cycles
system.cpu.dcache.ReadReq_accesses::.cpu.data    187986195                       # number of ReadReq accesses(hits+misses)
system.cpu.dcache.ReadReq_accesses::total    187986195                       # number of ReadReq accesses(hits+misses)
system.cpu.dcache.ReadReq_miss_rate::.cpu.data     0.020606                       # miss rate for ReadReq accesses
system.cpu.dcache.ReadReq_miss_rate::total     0.020606                       # miss rate for ReadReq accesses
system.cpu.dcache.ReadReq_avg_miss_latency::.cpu.data 70317.556626                       # average ReadReq miss latency
system.cpu.dcache.ReadReq_avg_miss_latency::total 70317.556626                       # average ReadReq miss latency
system.cpu.dcache.ReadReq_mshr_misses::.cpu.data      3873643                       # number of ReadReq MSHR misses
system.cpu.dcache.ReadReq_mshr_misses::total      3873643                       # number of ReadReq MSHR misses
system.cpu.dcache.ReadReq_mshr_miss_latency::.cpu.data 264637825000                       # number of ReadReq MSHR miss cycles
system.cpu.dcache.ReadReq_mshr_miss_latency::total 264637825000                       # number of ReadReq MSHR miss cycles
system.cpu.dcache.ReadReq_mshr_miss_rate::.cpu.data     0.020606                       # mshr miss rate for ReadReq accesses
system.cpu.dcache.ReadReq_mshr_miss_rate::total     0.020606                       # mshr miss rate for ReadReq accesses
system.cpu.dcache.ReadReq_avg_mshr_miss_latency::.cpu.data 68317.556626                       # average ReadReq mshr miss latency
system.cpu.dcache.ReadReq_avg_mshr_miss_latency::total 68317.556626                       # average ReadReq mshr miss latency
system.cpu.dcache.WriteReq_hits::.cpu.data    100109582                       # number of WriteReq hits
system.cpu.dcache.WriteReq_hits::total      100109582                       # number of WriteReq hits
system.cpu.dcache.WriteReq_misses::.cpu.data      4096491                       # number of WriteReq misses
system.cpu.dcache.WriteReq_misses::total      4096491                       # number of WriteReq misses
system.cpu.dcache.WriteReq_miss_latency::.cpu.data 163454888000                       # number of WriteReq miss cycles
system.cpu.dcache.WriteReq_miss_latency::total 163454888000                       # number of WriteReq miss cycles
system.cpu.dcache.WriteReq_accesses::.cpu.data    104206073                       # number of WriteReq accesses(hits+misses)
system.cpu.dcache.WriteReq_accesses::total    104206073                       # number of WriteReq accesses(hits+misses)
system.cpu.dcache.WriteReq_miss_rate::.cpu.data     0.039311                       # miss rate for WriteReq accesses
system.cpu.dcache.WriteReq_miss_rate::total     0.039311                       # miss rate for WriteReq accesses
system.cpu.dcache.WriteReq_avg_miss_latency::.cpu.data 39901.195438                       # average WriteReq miss latency
system.cpu.dcache.WriteReq_avg_miss_latency::total 39901.195438                       # average WriteReq miss latency
system.cpu.dcache.WriteReq_mshr_misses::.cpu.data      4096491                       # number of WriteReq MSHR misses
system.cpu.dcache.WriteReq_mshr_misses::total      4096491                       # number of WriteReq MSHR misses
system.cpu.dcache.WriteReq_mshr_miss_latency::.cpu.data 155261906000                       # number of WriteReq MSHR miss cycles
system.cpu.dcache.WriteReq_mshr_miss_latency::total 155261906000                       # number of WriteReq MSHR miss cycles
system.cpu.dcache.WriteReq_mshr_miss_rate::.cpu.data     0.039311                       # mshr miss rate for WriteReq accesses
system.cpu.dcache.WriteReq_mshr_miss_rate::total     0.039311                       # mshr miss rate for WriteReq accesses
system.cpu.dcache.WriteReq_avg_mshr_miss_latency::.cpu.data 37901.195438                       # average WriteReq mshr miss latency
system.cpu.dcache.WriteReq_avg_mshr_miss_latency::total 37901.195438                       # average WriteReq mshr miss latency
system.cpu.dcache.power_state.pwrStateResidencyTicks::UNDEFINED 2616693667000                       # Cumulative time (in ticks) in various power states
system.cpu.dcache.tags.tagsinuse          1023.902252                       # Cycle average of tags in use
system.cpu.dcache.tags.total_refs           292192268                       # Total number of references to valid blocks.
system.cpu.dcache.tags.sampled_refs           7970134                       # Sample count of references to valid blocks.
system.cpu.dcache.tags.avg_refs             36.660898                       # Average number of references to valid blocks.
system.cpu.dcache.tags.warmup_cycle            224000                       # Cycle when the warmup percentage was hit.
system.cpu.dcache.tags.occ_blocks::.cpu.data  1023.902252                       # Average occupied blocks per requestor
system.cpu.dcache.tags.occ_percent::.cpu.data     0.999905                       # Average percentage of cache occupancy
system.cpu.dcache.tags.occ_percent::total     0.999905                       # Average percentage of cache occupancy
system.cpu.dcache.tags.occ_task_id_blocks::1024         1024                       # Occupied blocks per task id
system.cpu.dcache.tags.age_task_id_blocks_1024::0           26                       # Occupied blocks per task id
system.cpu.dcache.tags.age_task_id_blocks_1024::1           95                       # Occupied blocks per task id
system.cpu.dcache.tags.age_task_id_blocks_1024::2          864                       # Occupied blocks per task id
system.cpu.dcache.tags.age_task_id_blocks_1024::3           28                       # Occupied blocks per task id
system.cpu.dcache.tags.age_task_id_blocks_1024::4           11                       # Occupied blocks per task id
system.cpu.dcache.tags.occ_task_id_percent::1024            1                       # Percentage of cache occupancy per task id
system.cpu.dcache.tags.tag_accesses         592354670                       # Number of tag accesses
system.cpu.dcache.tags.data_accesses        592354670                       # Number of data accesses
system.cpu.dcache.tags.power_state.pwrStateResidencyTicks::UNDEFINED 2616693667000                       # Cumulative time (in ticks) in various power states
system.cpu.dtb.rdAccesses                   187986196                       # TLB accesses on read requests
system.cpu.dtb.wrAccesses                   104206095                       # TLB accesses on write requests
system.cpu.dtb.rdMisses                        108733                       # TLB misses on read requests
system.cpu.dtb.wrMisses                         99901                       # TLB misses on write requests
system.cpu.dtb.walker.power_state.pwrStateResidencyTicks::UNDEFINED 2616693667000                       # Cumulative time (in ticks) in various power states
system.cpu.icache.demand_hits::.cpu.inst    805853273                       # number of demand (read+write) hits
system.cpu.icache.demand_hits::total        805853273                       # number of demand (read+write) hits
system.cpu.icache.overall_hits::.cpu.inst    805853273                       # number of overall hits
system.cpu.icache.overall_hits::total       805853273                       # number of overall hits
system.cpu.icache.demand_misses::.cpu.inst        11113                       # number of demand (read+write) misses
system.cpu.icache.demand_misses::total          11113                       # number of demand (read+write) misses
system.cpu.icache.overall_misses::.cpu.inst        11113                       # number of overall misses
system.cpu.icache.overall_misses::total         11113                       # number of overall misses
system.cpu.icache.demand_miss_latency::.cpu.inst    703451000                       # number of demand (read+write) miss cycles
system.cpu.icache.demand_miss_latency::total    703451000                       # number of demand (read+write) miss cycles
system.cpu.icache.overall_miss_latency::.cpu.inst    703451000                       # number of overall miss cycles
system.cpu.icache.overall_miss_latency::total    703451000                       # number of overall miss cycles
system.cpu.icache.demand_accesses::.cpu.inst    805864386                       # number of demand (read+write) accesses
system.cpu.icache.demand_accesses::total    805864386                       # number of demand (read+write) accesses
system.cpu.icache.overall_accesses::.cpu.inst    805864386                       # number of overall (read+write) accesses
system.cpu.icache.overall_accesses::total    805864386                       # number of overall (read+write) accesses
system.cpu.icache.demand_miss_rate::.cpu.inst     0.000014                       # miss rate for demand accesses
system.cpu.icache.demand_miss_rate::total     0.000014                       # miss rate for demand accesses
system.cpu.icache.overall_miss_rate::.cpu.inst     0.000014                       # miss rate for overall accesses
system.cpu.icache.overall_miss_rate::total     0.000014                       # miss rate for overall accesses
system.cpu.icache.demand_avg_miss_latency::.cpu.inst 63299.829029                       # average overall miss latency
system.cpu.icache.demand_avg_miss_latency::total 63299.829029                       # average overall miss latency
system.cpu.icache.overall_avg_miss_latency::.cpu.inst 63299.829029                       # average overall miss latency
system.cpu.icache.overall_avg_miss_latency::total 63299.829029                       # average overall miss latency
system.cpu.icache.blocked_cycles::no_mshrs            0                       # number of cycles access was blocked
system.cpu.icache.blocked_cycles::no_targets            0                       # number of cycles access was blocked
system.cpu.icache.blocked::no_mshrs                 0                       # number of cycles access was blocked
system.cpu.icache.blocked::no_targets               0                       # number of cycles access was blocked
system.cpu.icache.avg_blocked_cycles::no_mshrs          nan                       # average number of cycles each access was blocked
system.cpu.icache.avg_blocked_cycles::no_targets          nan                       # average number of cycles each access was blocked
system.cpu.icache.demand_mshr_misses::.cpu.inst        11113                       # number of demand (read+write) MSHR misses
system.cpu.icache.demand_mshr_misses::total        11113                       # number of demand (read+write) MSHR misses
system.cpu.icache.overall_mshr_misses::.cpu.inst        11113                       # number of overall MSHR misses
system.cpu.icache.overall_mshr_misses::total        11113                       # number of overall MSHR misses
system.cpu.icache.demand_mshr_miss_latency::.cpu.inst    681225000                       # number of demand (read+write) MSHR miss cycles
system.cpu.icache.demand_mshr_miss_latency::total    681225000                       # number of demand (read+write) MSHR miss cycles
system.cpu.icache.overall_mshr_miss_latency::.cpu.inst    681225000                       # number of overall MSHR miss cycles
system.cpu.icache.overall_mshr_miss_latency::total    681225000                       # number of overall MSHR miss cycles
system.cpu.icache.demand_mshr_miss_rate::.cpu.inst     0.000014                       # mshr miss rate for demand accesses
system.cpu.icache.demand_mshr_miss_rate::total     0.000014                       # mshr miss rate for demand accesses
system.cpu.icache.overall_mshr_miss_rate::.cpu.inst     0.000014                       # mshr miss rate for overall accesses
system.cpu.icache.overall_mshr_miss_rate::total     0.000014                       # mshr miss rate for overall accesses
system.cpu.icache.demand_avg_mshr_miss_latency::.cpu.inst 61299.829029                       # average overall mshr miss latency
system.cpu.icache.demand_avg_mshr_miss_latency::total 61299.829029                       # average overall mshr miss latency
system.cpu.icache.overall_avg_mshr_miss_latency::.cpu.inst 61299.829029                       # average overall mshr miss latency
system.cpu.icache.overall_avg_mshr_miss_latency::total 61299.829029                       # average overall mshr miss latency
system.cpu.icache.replacements                  10857                       # number of replacements
system.cpu.icache.ReadReq_hits::.cpu.inst    805853273                       # number of ReadReq hits
system.cpu.icache.ReadReq_hits::total       805853273                       # number of ReadReq hits
system.cpu.icache.ReadReq_misses::.cpu.inst        11113                       # number of ReadReq misses
system.cpu.icache.ReadReq_misses::total         11113                       # number of ReadReq misses
system.cpu.icache.ReadReq_miss_latency::.cpu.inst    703451000                       # number of ReadReq miss cycles
system.cpu.icache.ReadReq_miss_latency::total    703451000                       # number of ReadReq miss cycles
system.cpu.icache.ReadReq_accesses::.cpu.inst    805864386                       # number of ReadReq accesses(hits+misses)
system.cpu.icache.ReadReq_accesses::total    805864386                       # number of ReadReq accesses(hits+misses)
system.cpu.icache.ReadReq_miss_rate::.cpu.inst     0.000014                       # miss rate for ReadReq accesses
system.cpu.icache.ReadReq_miss_rate::total     0.000014                       # miss rate for ReadReq accesses
system.cpu.icache.ReadReq_avg_miss_latency::.cpu.inst 63299.829029                       # average ReadReq miss latency
system.cpu.icache.ReadReq_avg_miss_latency::total 63299.829029                       # average ReadReq miss latency
system.cpu.icache.ReadReq_mshr_misses::.cpu.inst        11113                       # number of ReadReq MSHR misses
system.cpu.icache.ReadReq_mshr_misses::total        11113                       # number of ReadReq MSHR misses
system.cpu.icache.ReadReq_mshr_miss_latency::.cpu.inst    681225000                       # number of ReadReq MSHR miss cycles
system.cpu.icache.ReadReq_mshr_miss_latency::total    681225000                       # number of ReadReq MSHR miss cycles
system.cpu.icache.ReadReq_mshr_miss_rate::.cpu.inst     0.000014                       # mshr miss rate for ReadReq accesses
system.cpu.icache.ReadReq_mshr_miss_rate::total     0.000014                       # mshr miss rate for ReadReq accesses
system.cpu.icache.ReadReq_avg_mshr_miss_latency::.cpu.inst 61299.829029                       # average ReadReq mshr miss latency
system.cpu.icache.ReadReq_avg_mshr_miss_latency::total 61299.829029                       # average ReadReq mshr miss latency
system.cpu.icache.power_state.pwrStateResidencyTicks::UNDEFINED 2616693667000                       # Cumulative time (in ticks) in various power states
system.cpu.icache.tags.tagsinuse           255.995145                       # Cycle average of tags in use
system.cpu.icache.tags.total_refs           805864386                       # Total number of references to valid blocks.
system.cpu.icache.tags.sampled_refs             11113                       # Sample count of references to valid blocks.
system.cpu.icache.tags.avg_refs          72515.467111                       # Average number of references to valid blocks.
system.cpu.icache.tags.warmup_cycle            107000                       # Cycle when the warmup percentage was hit.
system.cpu.icache.tags.occ_blocks::.cpu.inst   255.995145                       # Average occupied blocks per requestor
system.cpu.icache.tags.occ_percent::.cpu.inst     0.999981                       # Average percentage of cache occupancy
system.cpu.icache.tags.occ_percent::total     0.999981                       # Average percentage of cache occupancy
system.cpu.icache.tags.occ_task_id_blocks::1024          256                       # Occupied blocks per task id
system.cpu.icache.tags.age_task_id_blocks_1024::0           39                       # Occupied blocks per task id
system.cpu.icache.tags.age_task_id_blocks_1024::1          104                       # Occupied blocks per task id
system.cpu.icache.tags.age_task_id_blocks_1024::2          111                       # Occupied blocks per task id
system.cpu.icache.tags.age_task_id_blocks_1024::4            2                       # Occupied blocks per task id
system.cpu.icache.tags.occ_task_id_percent::1024            1                       # Percentage of cache occupancy per task id
system.cpu.icache.tags.tag_accesses        1611739885                       # Number of tag accesses
system.cpu.icache.tags.data_accesses       1611739885                       # Number of data accesses
system.cpu.icache.tags.power_state.pwrStateResidencyTicks::UNDEFINED 2616693667000                       # Cumulative time (in ticks) in various power states
system.cpu.interrupts.clk_domain.clock          16000                       # Clock period in ticks
system.cpu.itb.rdAccesses                           0                       # TLB accesses on read requests
system.cpu.itb.wrAccesses                   805864386                       # TLB accesses on write requests
system.cpu.itb.rdMisses                             0                       # TLB misses on read requests
system.cpu.itb.wrMisses                           111                       # TLB misses on write requests
system.cpu.itb.walker.power_state.pwrStateResidencyTicks::UNDEFINED 2616693667000                       # Cumulative time (in ticks) in various power states
system.cpu.power_state.pwrStateResidencyTicks::ON 2616693667000                       # Cumulative time (in ticks) in various power states
system.cpu.thread_0.numInsts                        0                       # Number of Instructions committed
system.cpu.thread_0.numOps                          0                       # Number of Ops committed
system.cpu.thread_0.numMemRefs                      0                       # Number of Memory References
system.l2bus.trans_dist::ReadResp             3884756                       # Transaction distribution
system.l2bus.trans_dist::WritebackDirty       9110258                       # Transaction distribution
system.l2bus.trans_dist::CleanEvict           1819238                       # Transaction distribution
system.l2bus.trans_dist::ReadExReq            4096491                       # Transaction distribution
system.l2bus.trans_dist::ReadExResp           4096491                       # Transaction distribution
system.l2bus.trans_dist::ReadSharedReq        3884756                       # Transaction distribution
system.l2bus.pkt_count_system.cpu.icache.mem_side_port::system.l2cache.cpu_side_port        33083                       # Packet count per connected requestor and responder (bytes)
system.l2bus.pkt_count_system.cpu.dcache.mem_side_port::system.l2cache.cpu_side_port     23909378                       # Packet count per connected requestor and responder (bytes)
system.l2bus.pkt_count::total                23942461                       # Packet count per connected requestor and responder (bytes)
system.l2bus.pkt_size_system.cpu.icache.mem_side_port::system.l2cache.cpu_side_port       711232                       # Cumulative packet size per connected requestor and responder (bytes)
system.l2bus.pkt_size_system.cpu.dcache.mem_side_port::system.l2cache.cpu_side_port    928934720                       # Cumulative packet size per connected requestor and responder (bytes)
system.l2bus.pkt_size::total                929645952                       # Cumulative packet size per connected requestor and responder (bytes)
system.l2bus.snoops                           2949529                       # Total snoops (count)
system.l2bus.snoopTraffic                   164210368                       # Total snoop traffic (bytes)
system.l2bus.snoop_fanout::samples           10930776                       # Request fanout histogram
system.l2bus.snoop_fanout::mean              0.004697                       # Request fanout histogram
system.l2bus.snoop_fanout::stdev             0.068370                       # Request fanout histogram
system.l2bus.snoop_fanout::underflows               0      0.00%      0.00% # Request fanout histogram
system.l2bus.snoop_fanout::0                 10879439     99.53%     99.53% # Request fanout histogram
system.l2bus.snoop_fanout::1                    51337      0.47%    100.00% # Request fanout histogram
system.l2bus.snoop_fanout::2                        0      0.00%    100.00% # Request fanout histogram
system.l2bus.snoop_fanout::overflows                0      0.00%    100.00% # Request fanout histogram
system.l2bus.snoop_fanout::min_value                0                       # Request fanout histogram
system.l2bus.snoop_fanout::max_value                1                       # Request fanout histogram
system.l2bus.snoop_fanout::total             10930776                       # Request fanout histogram
system.l2bus.power_state.pwrStateResidencyTicks::UNDEFINED 2616693667000                       # Cumulative time (in ticks) in various power states
system.l2bus.reqLayer0.occupancy          29050156000                       # Layer occupancy (ticks)
system.l2bus.reqLayer0.utilization                1.1                       # Layer utilization (%)
system.l2bus.respLayer0.occupancy            33339000                       # Layer occupancy (ticks)
system.l2bus.respLayer0.utilization               0.0                       # Layer utilization (%)
system.l2bus.respLayer1.occupancy         23910402000                       # Layer occupancy (ticks)
system.l2bus.respLayer1.utilization               0.9                       # Layer utilization (%)
system.l2cache.demand_hits::.cpu.inst            6001                       # number of demand (read+write) hits
system.l2cache.demand_hits::.cpu.data         5053170                       # number of demand (read+write) hits
system.l2cache.demand_hits::total             5059171                       # number of demand (read+write) hits
system.l2cache.overall_hits::.cpu.inst           6001                       # number of overall hits
system.l2cache.overall_hits::.cpu.data        5053170                       # number of overall hits
system.l2cache.overall_hits::total            5059171                       # number of overall hits
system.l2cache.demand_misses::.cpu.inst          5112                       # number of demand (read+write) misses
system.l2cache.demand_misses::.cpu.data       2916964                       # number of demand (read+write) misses
system.l2cache.demand_misses::total           2922076                       # number of demand (read+write) misses
system.l2cache.overall_misses::.cpu.inst         5112                       # number of overall misses
system.l2cache.overall_misses::.cpu.data      2916964                       # number of overall misses
system.l2cache.overall_misses::total          2922076                       # number of overall misses
system.l2cache.demand_miss_latency::.cpu.inst    521750000                       # number of demand (read+write) miss cycles
system.l2cache.demand_miss_latency::.cpu.data 289854605000                       # number of demand (read+write) miss cycles
system.l2cache.demand_miss_latency::total 290376355000                       # number of demand (read+write) miss cycles
system.l2cache.overall_miss_latency::.cpu.inst    521750000                       # number of overall miss cycles
system.l2cache.overall_miss_latency::.cpu.data 289854605000                       # number of overall miss cycles
system.l2cache.overall_miss_latency::total 290376355000                       # number of overall miss cycles
system.l2cache.demand_accesses::.cpu.inst        11113                       # number of demand (read+write) accesses
system.l2cache.demand_accesses::.cpu.data      7970134                       # number of demand (read+write) accesses
system.l2cache.demand_accesses::total         7981247                       # number of demand (read+write) accesses
system.l2cache.overall_accesses::.cpu.inst        11113                       # number of overall (read+write) accesses
system.l2cache.overall_accesses::.cpu.data      7970134                       # number of overall (read+write) accesses
system.l2cache.overall_accesses::total        7981247                       # number of overall (read+write) accesses
system.l2cache.demand_miss_rate::.cpu.inst     0.460002                       # miss rate for demand accesses
system.l2cache.demand_miss_rate::.cpu.data     0.365987                       # miss rate for demand accesses
system.l2cache.demand_miss_rate::total       0.366118                       # miss rate for demand accesses
system.l2cache.overall_miss_rate::.cpu.inst     0.460002                       # miss rate for overall accesses
system.l2cache.overall_miss_rate::.cpu.data     0.365987                       # miss rate for overall accesses
system.l2cache.overall_miss_rate::total      0.366118                       # miss rate for overall accesses
system.l2cache.demand_avg_miss_latency::.cpu.inst 102063.771518                       # average overall miss latency
system.l2cache.demand_avg_miss_latency::.cpu.data 99368.591796                       # average overall miss latency
system.l2cache.demand_avg_miss_latency::total 99373.306854                       # average overall miss latency
system.l2cache.overall_avg_miss_latency::.cpu.inst 102063.771518                       # average overall miss latency
system.l2cache.overall_avg_miss_latency::.cpu.data 99368.591796                       # average overall miss latency
system.l2cache.overall_avg_miss_latency::total 99373.306854                       # average overall miss latency
system.l2cache.blocked_cycles::no_mshrs             0                       # number of cycles access was blocked
system.l2cache.blocked_cycles::no_targets            0                       # number of cycles access was blocked
system.l2cache.blocked::no_mshrs                    0                       # number of cycles access was blocked
system.l2cache.blocked::no_targets                  0                       # number of cycles access was blocked
system.l2cache.avg_blocked_cycles::no_mshrs          nan                       # average number of cycles each access was blocked
system.l2cache.avg_blocked_cycles::no_targets          nan                       # average number of cycles each access was blocked
system.l2cache.writebacks::.writebacks        2565787                       # number of writebacks
system.l2cache.writebacks::total              2565787                       # number of writebacks
system.l2cache.demand_mshr_misses::.cpu.inst         5112                       # number of demand (read+write) MSHR misses
system.l2cache.demand_mshr_misses::.cpu.data      2916964                       # number of demand (read+write) MSHR misses
system.l2cache.demand_mshr_misses::total      2922076                       # number of demand (read+write) MSHR misses
system.l2cache.overall_mshr_misses::.cpu.inst         5112                       # number of overall MSHR misses
system.l2cache.overall_mshr_misses::.cpu.data      2916964                       # number of overall MSHR misses
system.l2cache.overall_mshr_misses::total      2922076                       # number of overall MSHR misses
system.l2cache.demand_mshr_miss_latency::.cpu.inst    419510000                       # number of demand (read+write) MSHR miss cycles
system.l2cache.demand_mshr_miss_latency::.cpu.data 231515325000                       # number of demand (read+write) MSHR miss cycles
system.l2cache.demand_mshr_miss_latency::total 231934835000                       # number of demand (read+write) MSHR miss cycles
system.l2cache.overall_mshr_miss_latency::.cpu.inst    419510000                       # number of overall MSHR miss cycles
system.l2cache.overall_mshr_miss_latency::.cpu.data 231515325000                       # number of overall MSHR miss cycles
system.l2cache.overall_mshr_miss_latency::total 231934835000                       # number of overall MSHR miss cycles
system.l2cache.demand_mshr_miss_rate::.cpu.inst     0.460002                       # mshr miss rate for demand accesses
system.l2cache.demand_mshr_miss_rate::.cpu.data     0.365987                       # mshr miss rate for demand accesses
system.l2cache.demand_mshr_miss_rate::total     0.366118                       # mshr miss rate for demand accesses
system.l2cache.overall_mshr_miss_rate::.cpu.inst     0.460002                       # mshr miss rate for overall accesses
system.l2cache.overall_mshr_miss_rate::.cpu.data     0.365987                       # mshr miss rate for overall accesses
system.l2cache.overall_mshr_miss_rate::total     0.366118                       # mshr miss rate for overall accesses
system.l2cache.demand_avg_mshr_miss_latency::.cpu.inst 82063.771518                       # average overall mshr miss latency
system.l2cache.demand_avg_mshr_miss_latency::.cpu.data 79368.591796                       # average overall mshr miss latency
system.l2cache.demand_avg_mshr_miss_latency::total 79373.306854                       # average overall mshr miss latency
system.l2cache.overall_avg_mshr_miss_latency::.cpu.inst 82063.771518                       # average overall mshr miss latency
system.l2cache.overall_avg_mshr_miss_latency::.cpu.data 79368.591796                       # average overall mshr miss latency
system.l2cache.overall_avg_mshr_miss_latency::total 79373.306854                       # average overall mshr miss latency
system.l2cache.replacements                   2920573                       # number of replacements
system.l2cache.WritebackDirty_hits::.writebacks      6544099                       # number of WritebackDirty hits
system.l2cache.WritebackDirty_hits::total      6544099                       # number of WritebackDirty hits
system.l2cache.WritebackDirty_misses::.writebacks          372                       # number of WritebackDirty misses
system.l2cache.WritebackDirty_misses::total          372                       # number of WritebackDirty misses
system.l2cache.WritebackDirty_accesses::.writebacks      6544471                       # number of WritebackDirty accesses(hits+misses)
system.l2cache.WritebackDirty_accesses::total      6544471                       # number of WritebackDirty accesses(hits+misses)
system.l2cache.WritebackDirty_miss_rate::.writebacks     0.000057                       # miss rate for WritebackDirty accesses
system.l2cache.WritebackDirty_miss_rate::total     0.000057                       # miss rate for WritebackDirty accesses
system.l2cache.WritebackDirty_mshr_misses::.writebacks          372                       # number of WritebackDirty MSHR misses
system.l2cache.WritebackDirty_mshr_misses::total          372                       # number of WritebackDirty MSHR misses
system.l2cache.WritebackDirty_mshr_miss_rate::.writebacks     0.000057                       # mshr miss rate for WritebackDirty accesses
system.l2cache.WritebackDirty_mshr_miss_rate::total     0.000057                       # mshr miss rate for WritebackDirty accesses
system.l2cache.CleanEvict_mshr_misses::.writebacks        15295                       # number of CleanEvict MSHR misses
system.l2cache.CleanEvict_mshr_misses::total        15295                       # number of CleanEvict MSHR misses
system.l2cache.CleanEvict_mshr_miss_rate::.writebacks          inf                       # mshr miss rate for CleanEvict accesses
system.l2cache.CleanEvict_mshr_miss_rate::total          inf                       # mshr miss rate for CleanEvict accesses
system.l2cache.ReadExReq_hits::.cpu.data      3373739                       # number of ReadExReq hits
system.l2cache.ReadExReq_hits::total          3373739                       # number of ReadExReq hits
system.l2cache.ReadExReq_misses::.cpu.data       722752                       # number of ReadExReq misses
system.l2cache.ReadExReq_misses::total         722752                       # number of ReadExReq misses
system.l2cache.ReadExReq_miss_latency::.cpu.data  72105769000                       # number of ReadExReq miss cycles
system.l2cache.ReadExReq_miss_latency::total  72105769000                       # number of ReadExReq miss cycles
system.l2cache.ReadExReq_accesses::.cpu.data      4096491                       # number of ReadExReq accesses(hits+misses)
system.l2cache.ReadExReq_accesses::total      4096491                       # number of ReadExReq accesses(hits+misses)
system.l2cache.ReadExReq_miss_rate::.cpu.data     0.176432                       # miss rate for ReadExReq accesses
system.l2cache.ReadExReq_miss_rate::total     0.176432                       # miss rate for ReadExReq accesses
system.l2cache.ReadExReq_avg_miss_latency::.cpu.data 99765.575190                       # average ReadExReq miss latency
system.l2cache.ReadExReq_avg_miss_latency::total 99765.575190                       # average ReadExReq miss latency
system.l2cache.ReadExReq_mshr_misses::.cpu.data       722752                       # number of ReadExReq MSHR misses
system.l2cache.ReadExReq_mshr_misses::total       722752                       # number of ReadExReq MSHR misses
system.l2cache.ReadExReq_mshr_miss_latency::.cpu.data  57650729000                       # number of ReadExReq MSHR miss cycles
system.l2cache.ReadExReq_mshr_miss_latency::total  57650729000                       # number of ReadExReq MSHR miss cycles
system.l2cache.ReadExReq_mshr_miss_rate::.cpu.data     0.176432                       # mshr miss rate for ReadExReq accesses
system.l2cache.ReadExReq_mshr_miss_rate::total     0.176432                       # mshr miss rate for ReadExReq accesses
system.l2cache.ReadExReq_avg_mshr_miss_latency::.cpu.data 79765.575190                       # average ReadExReq mshr miss latency
system.l2cache.ReadExReq_avg_mshr_miss_latency::total 79765.575190                       # average ReadExReq mshr miss latency
system.l2cache.ReadSharedReq_hits::.cpu.inst         6001                       # number of ReadSharedReq hits
system.l2cache.ReadSharedReq_hits::.cpu.data      1679431                       # number of ReadSharedReq hits
system.l2cache.ReadSharedReq_hits::total      1685432                       # number of ReadSharedReq hits
system.l2cache.ReadSharedReq_misses::.cpu.inst         5112                       # number of ReadSharedReq misses
system.l2cache.ReadSharedReq_misses::.cpu.data      2194212                       # number of ReadSharedReq misses
system.l2cache.ReadSharedReq_misses::total      2199324                       # number of ReadSharedReq misses
system.l2cache.ReadSharedReq_miss_latency::.cpu.inst    521750000                       # number of ReadSharedReq miss cycles
system.l2cache.ReadSharedReq_miss_latency::.cpu.data 217748836000                       # number of ReadSharedReq miss cycles
system.l2cache.ReadSharedReq_miss_latency::total 218270586000                       # number of ReadSharedReq miss cycles
system.l2cache.ReadSharedReq_accesses::.cpu.inst        11113                       # number of ReadSharedReq accesses(hits+misses)
system.l2cache.ReadSharedReq_accesses::.cpu.data      3873643                       # number of ReadSharedReq accesses(hits+misses)
system.l2cache.ReadSharedReq_accesses::total      3884756                       # number of ReadSharedReq accesses(hits+misses)
system.l2cache.ReadSharedReq_miss_rate::.cpu.inst     0.460002                       # miss rate for ReadSharedReq accesses
system.l2cache.ReadSharedReq_miss_rate::.cpu.data     0.566447                       # miss rate for ReadSharedReq accesses
system.l2cache.ReadSharedReq_miss_rate::total     0.566142                       # miss rate for ReadSharedReq accesses
system.l2cache.ReadSharedReq_avg_miss_latency::.cpu.inst 102063.771518                       # average ReadSharedReq miss latency
system.l2cache.ReadSharedReq_avg_miss_latency::.cpu.data 99237.829344                       # average ReadSharedReq miss latency
system.l2cache.ReadSharedReq_avg_miss_latency::total 99244.397824                       # average ReadSharedReq miss latency
system.l2cache.ReadSharedReq_mshr_misses::.cpu.inst         5112                       # number of ReadSharedReq MSHR misses
system.l2cache.ReadSharedReq_mshr_misses::.cpu.data      2194212                       # number of ReadSharedReq MSHR misses
system.l2cache.ReadSharedReq_mshr_misses::total      2199324                       # number of ReadSharedReq MSHR misses
system.l2cache.ReadSharedReq_mshr_miss_latency::.cpu.inst    419510000                       # number of ReadSharedReq MSHR miss cycles
system.l2cache.ReadSharedReq_mshr_miss_latency::.cpu.data 173864596000                       # number of ReadSharedReq MSHR miss cycles
system.l2cache.ReadSharedReq_mshr_miss_latency::total 174284106000                       # number of ReadSharedReq MSHR miss cycles
system.l2cache.ReadSharedReq_mshr_miss_rate::.cpu.inst     0.460002                       # mshr miss rate for ReadSharedReq accesses
system.l2cache.ReadSharedReq_mshr_miss_rate::.cpu.data     0.566447                       # mshr miss rate for ReadSharedReq accesses
system.l2cache.ReadSharedReq_mshr_miss_rate::total     0.566142                       # mshr miss rate for ReadSharedReq accesses
system.l2cache.ReadSharedReq_avg_mshr_miss_latency::.cpu.inst 82063.771518                       # average ReadSharedReq mshr miss latency
system.l2cache.ReadSharedReq_avg_mshr_miss_latency::.cpu.data 79237.829344                       # average ReadSharedReq mshr miss latency
system.l2cache.ReadSharedReq_avg_mshr_miss_latency::total 79244.397824                       # average ReadSharedReq mshr miss latency
system.l2cache.power_state.pwrStateResidencyTicks::UNDEFINED 2616693667000                       # Cumulative time (in ticks) in various power states
system.l2cache.replacement_policy.totalBypasses        29328                       # Total number of cache bypasses
system.l2cache.replacement_policy.effectiveBypasses           10                       # Bypasses that correctly skipped non-reused blocks
system.l2cache.replacement_policy.ineffectiveBypasses        20983                       # Bypasses that incorrectly skipped requested blocks
system.l2cache.replacement_policy.virtualEffectiveBypasses           79                       # Virtual bypasses correctly predicting non-reused blocks
system.l2cache.replacement_policy.virtualIneffectiveBypasses       140722                       # Virtual bypasses incorrectly predicting requested blocks
system.l2cache.tags.tagsinuse             8187.728613                       # Cycle average of tags in use
system.l2cache.tags.total_refs               15916591                       # Total number of references to valid blocks.
system.l2cache.tags.sampled_refs              2928765                       # Sample count of references to valid blocks.
system.l2cache.tags.avg_refs                 5.434574                       # Average number of references to valid blocks.
system.l2cache.tags.warmup_cycle               417000                       # Cycle when the warmup percentage was hit.
system.l2cache.tags.occ_blocks::.writebacks   294.451533                       # Average occupied blocks per requestor
system.l2cache.tags.occ_blocks::.cpu.inst     4.413303                       # Average occupied blocks per requestor
system.l2cache.tags.occ_blocks::.cpu.data  7888.863777                       # Average occupied blocks per requestor
system.l2cache.tags.occ_percent::.writebacks     0.035944                       # Average percentage of cache occupancy
system.l2cache.tags.occ_percent::.cpu.inst     0.000539                       # Average percentage of cache occupancy
system.l2cache.tags.occ_percent::.cpu.data     0.962996                       # Average percentage of cache occupancy
system.l2cache.tags.occ_percent::total       0.999479                       # Average percentage of cache occupancy
system.l2cache.tags.occ_task_id_blocks::1024         8192                       # Occupied blocks per task id
system.l2cache.tags.age_task_id_blocks_1024::0           59                       # Occupied blocks per task id
system.l2cache.tags.age_task_id_blocks_1024::1          127                       # Occupied blocks per task id
system.l2cache.tags.age_task_id_blocks_1024::2         1892                       # Occupied blocks per task id
system.l2cache.tags.age_task_id_blocks_1024::3         5071                       # Occupied blocks per task id
system.l2cache.tags.age_task_id_blocks_1024::4         1043                       # Occupied blocks per task id
system.l2cache.tags.occ_task_id_percent::1024            1                       # Percentage of cache occupancy per task id
system.l2cache.tags.tag_accesses            130618477                       # Number of tag accesses
system.l2cache.tags.data_accesses           130618477                       # Number of data accesses
system.l2cache.tags.power_state.pwrStateResidencyTicks::UNDEFINED 2616693667000                       # Cumulative time (in ticks) in various power states
system.mem_ctrl.avgPriority_.writebacks::samples   2566159.00                       # Average QoS priority value for accepted requests
system.mem_ctrl.avgPriority_.cpu.inst::samples      5112.00                       # Average QoS priority value for accepted requests
system.mem_ctrl.avgPriority_.cpu.data::samples   2916857.00                       # Average QoS priority value for accepted requests
system.mem_ctrl.priorityMinLatency       0.000000018750                       # per QoS priority minimum request to response latency (s)
system.mem_ctrl.priorityMaxLatency       0.002031368500                       # per QoS priority maximum request to response latency (s)
system.mem_ctrl.numReadWriteTurnArounds        146575                       # Number of turnarounds from READ to WRITE
system.mem_ctrl.numWriteReadTurnArounds        146575                       # Number of turnarounds from WRITE to READ
system.mem_ctrl.numStayReadState              9029044                       # Number of times bus staying in READ state
system.mem_ctrl.numStayWriteState             2423007                       # Number of times bus staying in WRITE state
system.mem_ctrl.readReqs                      2922076                       # Number of read requests accepted
system.mem_ctrl.writeReqs                     2566159                       # Number of write requests accepted
system.mem_ctrl.readBursts                    2922076                       # Number of controller read bursts, including those serviced by the write queue
system.mem_ctrl.writeBursts                   2566159                       # Number of controller write bursts, including those merged in the write queue
system.mem_ctrl.servicedByWrQ                     107                       # Number of controller read bursts serviced by the write queue
system.mem_ctrl.mergedWrBursts                      0                       # Number of controller write bursts merged with an existing one
system.mem_ctrl.neitherReadNorWriteReqs             0                       # Number of requests that are neither read nor write
system.mem_ctrl.avgRdQLen                        1.00                       # Average read queue length when enqueuing
system.mem_ctrl.avgWrQLen                       24.76                       # Average write queue length when enqueuing
system.mem_ctrl.numRdRetry                          0                       # Number of times read queue was full causing retry
system.mem_ctrl.numWrRetry                          0                       # Number of times write queue was full causing retry
system.mem_ctrl.readPktSize::0                      0                       # Read request sizes (log2)
system.mem_ctrl.readPktSize::1                      0                       # Read request sizes (log2)
system.mem_ctrl.readPktSize::2                      0                       # Read request sizes (log2)
system.mem_ctrl.readPktSize::3                      0                       # Read request sizes (log2)
system.mem_ctrl.readPktSize::4                      0                       # Read request sizes (log2)
system.mem_ctrl.readPktSize::5                      0                       # Read request sizes (log2)
system.mem_ctrl.readPktSize::6                2922076                       # Read request sizes (log2)
system.mem_ctrl.writePktSize::0                     0                       # Write request sizes (log2)
system.mem_ctrl.writePktSize::1                     0                       # Write request sizes (log2)
system.mem_ctrl.writePktSize::2                     0                       # Write request sizes (log2)
system.mem_ctrl.writePktSize::3                     0                       # Write request sizes (log2)
system.mem_ctrl.writePktSize::4                     0                       # Write request sizes (log2)
system.mem_ctrl.writePktSize::5                     0                       # Write request sizes (log2)
system.mem_ctrl.writePktSize::6               2566159                       # Write request sizes (log2)
system.mem_ctrl.rdQLenPdf::0                  2921966                       # What read queue length does an incoming req see
system.mem_ctrl.rdQLenPdf::1                        3                       # What read queue length does an incoming req see
system.mem_ctrl.rdQLenPdf::2                        0                       # What read queue length does an incoming req see
system.mem_ctrl.rdQLenPdf::3                        0                       # What read queue length does an incoming req see
system.mem_ctrl.rdQLenPdf::4                        0                       # What read queue length does an incoming req see
system.mem_ctrl.rdQLenPdf::5                        0                       # What read queue length does an incoming req see
system.mem_ctrl.rdQLenPdf::6                        0                       # What read queue length does an incoming req see
system.mem_ctrl.rdQLenPdf::7                        0                       # What read queue length does an incoming req see
system.mem_ctrl.rdQLenPdf::8                        0                       # What read queue length does an incoming req see
system.mem_ctrl.rdQLenPdf::9                        0                       # What read queue length does an incoming req see
system.mem_ctrl.rdQLenPdf::10                       0                       # What read queue length does an incoming req see
system.mem_ctrl.rdQLenPdf::11                       0                       # What read queue length does an incoming req see
system.mem_ctrl.rdQLenPdf::12                       0                       # What read queue length does an incoming req see
system.mem_ctrl.rdQLenPdf::13                       0                       # What read queue length does an incoming req see
system.mem_ctrl.rdQLenPdf::14                       0                       # What read queue length does an incoming req see
system.mem_ctrl.rdQLenPdf::15                       0                       # What read queue length does an incoming req see
system.mem_ctrl.rdQLenPdf::16                       0                       # What read queue length does an incoming req see
system.mem_ctrl.rdQLenPdf::17                       0                       # What read queue length does an incoming req see
system.mem_ctrl.rdQLenPdf::18                       0                       # What read queue length does an incoming req see
system.mem_ctrl.rdQLenPdf::19                       0                       # What read queue length does an incoming req see
system.mem_ctrl.rdQLenPdf::20                       0                       # What read queue length does an incoming req see
system.mem_ctrl.rdQLenPdf::21                       0                       # What read queue length does an incoming req see
system.mem_ctrl.rdQLenPdf::22                       0                       # What read queue length does an incoming req see
system.mem_ctrl.rdQLenPdf::23                       0                       # What read queue length does an incoming req see
system.mem_ctrl.rdQLenPdf::24                       0                       # What read queue length does an incoming req see
system.mem_ctrl.rdQLenPdf::25                       0                       # What read queue length does an incoming req see
system.mem_ctrl.rdQLenPdf::26                       0                       # What read queue length does an incoming req see
system.mem_ctrl.rdQLenPdf::27                       0                       # What read queue length does an incoming req see
system.mem_ctrl.rdQLenPdf::28                       0                       # What read queue length does an incoming req see
system.mem_ctrl.rdQLenPdf::29                       0                       # What read queue length does an incoming req see
system.mem_ctrl.rdQLenPdf::30                       0                       # What read queue length does an incoming req see
system.mem_ctrl.rdQLenPdf::31                       0                       # What read queue length does an incoming req see
system.mem_ctrl.wrQLenPdf::0                        1                       # What write queue length does an incoming req see
system.mem_ctrl.wrQLenPdf::1                        1                       # What write queue length does an incoming req see
system.mem_ctrl.wrQLenPdf::2                        1                       # What write queue length does an incoming req see
system.mem_ctrl.wrQLenPdf::3                        1                       # What write queue length does an incoming req see
system.mem_ctrl.wrQLenPdf::4                        1                       # What write queue length does an incoming req see
system.mem_ctrl.wrQLenPdf::5                        1                       # What write queue length does an incoming req see
system.mem_ctrl.wrQLenPdf::6                        1                       # What write queue length does an incoming req see
system.mem_ctrl.wrQLenPdf::7                        1                       # What write queue length does an incoming req see
system.mem_ctrl.wrQLenPdf::8                        1                       # What write queue length does an incoming req see
system.mem_ctrl.wrQLenPdf::9                        1                       # What write queue length does an incoming req see
system.mem_ctrl.wrQLenPdf::10                       1                       # What write queue length does an incoming req see
system.mem_ctrl.wrQLenPdf::11                       1                       # What write queue length does an incoming req see
system.mem_ctrl.wrQLenPdf::12                       1                       # What write queue length does an incoming req see
system.mem_ctrl.wrQLenPdf::13                       1                       # What write queue length does an incoming req see
system.mem_ctrl.wrQLenPdf::14                       1                       # What write queue length does an incoming req see
system.mem_ctrl.wrQLenPdf::15                  108907                       # What write queue length does an incoming req see
system.mem_ctrl.wrQLenPdf::16                  110615                       # What write queue length does an incoming req see
system.mem_ctrl.wrQLenPdf::17                  146169                       # What write queue length does an incoming req see
system.mem_ctrl.wrQLenPdf::18                  146722                       # What write queue length does an incoming req see
system.mem_ctrl.wrQLenPdf::19                  146942                       # What write queue length does an incoming req see
system.mem_ctrl.wrQLenPdf::20                  146649                       # What write queue length does an incoming req see
system.mem_ctrl.wrQLenPdf::21                  147152                       # What write queue length does an incoming req see
system.mem_ctrl.wrQLenPdf::22                  146772                       # What write queue length does an incoming req see
system.mem_ctrl.wrQLenPdf::23                  146867                       # What write queue length does an incoming req see
system.mem_ctrl.wrQLenPdf::24                  146703                       # What write queue length does an incoming req see
system.mem_ctrl.wrQLenPdf::25                  146588                       # What write queue length does an incoming req see
system.mem_ctrl.wrQLenPdf::26                  146584                       # What write queue length does an incoming req see
system.mem_ctrl.wrQLenPdf::27                  146577                       # What write queue length does an incoming req see
system.mem_ctrl.wrQLenPdf::28                  146578                       # What write queue length does an incoming req see
system.mem_ctrl.wrQLenPdf::29                  146576                       # What write queue length does an incoming req see
system.mem_ctrl.wrQLenPdf::30                  146575                       # What write queue length does an incoming req see
system.mem_ctrl.wrQLenPdf::31                  146575                       # What write queue length does an incoming req see
system.mem_ctrl.wrQLenPdf::32                  146575                       # What write queue length does an incoming req see
system.mem_ctrl.wrQLenPdf::33                      17                       # What write queue length does an incoming req see
system.mem_ctrl.wrQLenPdf::34                       1                       # What write queue length does an incoming req see
system.mem_ctrl.wrQLenPdf::35                       0                       # What write queue length does an incoming req see
system.mem_ctrl.wrQLenPdf::36                       0                       # What write queue length does an incoming req see
system.mem_ctrl.wrQLenPdf::37                       0                       # What write queue length does an incoming req see
system.mem_ctrl.wrQLenPdf::38                       0                       # What write queue length does an incoming req see
system.mem_ctrl.wrQLenPdf::39                       0                       # What write queue length does an incoming req see
system.mem_ctrl.wrQLenPdf::40                       0                       # What write queue length does an incoming req see
system.mem_ctrl.wrQLenPdf::41                       0                       # What write queue length does an incoming req see
system.mem_ctrl.wrQLenPdf::42                       0                       # What write queue length does an incoming req see
system.mem_ctrl.wrQLenPdf::43                       0                       # What write queue length does an incoming req see
system.mem_ctrl.wrQLenPdf::44                       0                       # What write queue length does an incoming req see
system.mem_ctrl.wrQLenPdf::45                       0                       # What write queue length does an incoming req see
system.mem_ctrl.wrQLenPdf::46                       0                       # What write queue length does an incoming req see
system.mem_ctrl.wrQLenPdf::47                       0                       # What write queue length does an incoming req see
system.mem_ctrl.wrQLenPdf::48                       0                       # What write queue length does an incoming req see
system.mem_ctrl.wrQLenPdf::49                       0                       # What write queue length does an incoming req see
system.mem_ctrl.wrQLenPdf::50                       0                       # What write queue length does an incoming req see
system.mem_ctrl.wrQLenPdf::51                       0                       # What write queue length does an incoming req see
system.mem_ctrl.wrQLenPdf::52                       0                       # What write queue length does an incoming req see
system.mem_ctrl.wrQLenPdf::53                       0                       # What write queue length does an incoming req see
system.mem_ctrl.wrQLenPdf::54                       0                       # What write queue length does an incoming req see
system.mem_ctrl.wrQLenPdf::55                       0                       # What write queue length does an incoming req see
system.mem_ctrl.wrQLenPdf::56                       0                       # What write queue length does an incoming req see
system.mem_ctrl.wrQLenPdf::57                       0                       # What write queue length does an incoming req see
system.mem_ctrl.wrQLenPdf::58                       0                       # What write queue length does an incoming req see
system.mem_ctrl.wrQLenPdf::59                       0                       # What write queue length does an incoming req see
system.mem_ctrl.wrQLenPdf::60                       0                       # What write queue length does an incoming req see
system.mem_ctrl.wrQLenPdf::61                       0                       # What write queue length does an incoming req see
system.mem_ctrl.wrQLenPdf::62                       0                       # What write queue length does an incoming req see
system.mem_ctrl.wrQLenPdf::63                       0                       # What write queue length does an incoming req see
system.mem_ctrl.rdPerTurnAround::samples       146575                       # Reads before turning the bus around for writes
system.mem_ctrl.rdPerTurnAround::mean       19.934880                       # Reads before turning the bus around for writes
system.mem_ctrl.rdPerTurnAround::gmean      18.963864                       # Reads before turning the bus around for writes
system.mem_ctrl.rdPerTurnAround::stdev      23.871580                       # Reads before turning the bus around for writes
system.mem_ctrl.rdPerTurnAround::0-511         146573    100.00%    100.00% # Reads before turning the bus around for writes
system.mem_ctrl.rdPerTurnAround::512-1023            1      0.00%    100.00% # Reads before turning the bus around for writes
system.mem_ctrl.rdPerTurnAround::8192-8703            1      0.00%    100.00% # Reads before turning the bus around for writes
system.mem_ctrl.rdPerTurnAround::total         146575                       # Reads before turning the bus around for writes
system.mem_ctrl.wrPerTurnAround::samples       146575                       # Writes before turning the bus around for reads
system.mem_ctrl.wrPerTurnAround::mean       17.507283                       # Writes before turning the bus around for reads
system.mem_ctrl.wrPerTurnAround::gmean      17.484593                       # Writes before turning the bus around for reads
system.mem_ctrl.wrPerTurnAround::stdev       0.874740                       # Writes before turning the bus around for reads
system.mem_ctrl.wrPerTurnAround::16             36153     24.67%     24.67% # Writes before turning the bus around for reads
system.mem_ctrl.wrPerTurnAround::17              1499      1.02%     25.69% # Writes before turning the bus around for reads
system.mem_ctrl.wrPerTurnAround::18            107357     73.24%     98.93% # Writes before turning the bus around for reads
system.mem_ctrl.wrPerTurnAround::19              1549      1.06%     99.99% # Writes before turning the bus around for reads
system.mem_ctrl.wrPerTurnAround::20                15      0.01%    100.00% # Writes before turning the bus around for reads
system.mem_ctrl.wrPerTurnAround::21                 2      0.00%    100.00% # Writes before turning the bus around for reads
system.mem_ctrl.wrPerTurnAround::total         146575                       # Writes before turning the bus around for reads
system.mem_ctrl.bytesReadWrQ                     6848                       # Total number of bytes read from write queue
system.mem_ctrl.bytesReadSys                187012864                       # Total read bytes from the system interface side
system.mem_ctrl.bytesWrittenSys             164234176                       # Total written bytes from the system interface side
system.mem_ctrl.avgRdBWSys                      71.47                       # Average system read bandwidth in MiByte/s
system.mem_ctrl.avgWrBWSys                      62.76                       # Average system write bandwidth in MiByte/s
system.mem_ctrl.totGap                   2616693635000                       # Total gap between requests
system.mem_ctrl.avgGap                      476782.36                       # Average gap between requests
[...]
system.mem_ctrl.requestorReadRate::.cpu.data 71341498.760160371661                       # Per-requestor bytes read from memory rate (Bytes/sec)
system.mem_ctrl.requestorWriteRate::.writebacks 62763296.319775134325                       # Per-requestor bytes write to memory rate (Bytes/sec)
system.mem_ctrl.requestorReadAccesses::.cpu.inst         5112                       # Per-requestor read serviced memory accesses
system.mem_ctrl.requestorReadAccesses::.cpu.data      2916964                       # Per-requestor read serviced memory accesses
system.mem_ctrl.requestorWriteAccesses::.writebacks      2566159                       # Per-requestor write serviced memory accesses
system.mem_ctrl.requestorReadTotalLat::.cpu.inst    157024500                       # Per-requestor read total memory access latency
system.mem_ctrl.requestorReadTotalLat::.cpu.data  81871502500                       # Per-requestor read total memory access latency
system.mem_ctrl.requestorWriteTotalLat::.writebacks 62218794039000                       # Per-requestor write total memory access latency
system.mem_ctrl.requestorReadAvgLat::.cpu.inst     30716.84                       # Per-requestor read average memory access latency
system.mem_ctrl.requestorReadAvgLat::.cpu.data     28067.37                       # Per-requestor read average memory access latency
system.mem_ctrl.requestorWriteAvgLat::.writebacks  24245884.23                       # Per-requestor write average memory access latency
system.mem_ctrl.dram.bytes_read::.cpu.inst       327168                       # Number of bytes read from this memory
system.mem_ctrl.dram.bytes_read::.cpu.data    186685696                       # Number of bytes read from this memory
system.mem_ctrl.dram.bytes_read::total      187012864                       # Number of bytes read from this memory
system.mem_ctrl.dram.bytes_inst_read::.cpu.inst       327168                       # Number of instructions bytes read from this memory
system.mem_ctrl.dram.bytes_inst_read::total       327168                       # Number of instructions bytes read from this memory
system.mem_ctrl.dram.bytes_written::.writebacks    164234176                       # Number of bytes written to this memory
system.mem_ctrl.dram.bytes_written::total    164234176                       # Number of bytes written to this memory
system.mem_ctrl.dram.num_reads::.cpu.inst         5112                       # Number of read requests responded to by this memory
system.mem_ctrl.dram.num_reads::.cpu.data      2916964                       # Number of read requests responded to by this memory
system.mem_ctrl.dram.num_reads::total         2922076                       # Number of read requests responded to by this memory
system.mem_ctrl.dram.num_writes::.writebacks      2566159                       # Number of write requests responded to by this memory
system.mem_ctrl.dram.num_writes::total        2566159                       # Number of write requests responded to by this memory
system.mem_ctrl.dram.bw_read::.cpu.inst        125031                       # Total read bandwidth from this memory (bytes/s)
system.mem_ctrl.dram.bw_read::.cpu.data      71344116                       # Total read bandwidth from this memory (bytes/s)
system.mem_ctrl.dram.bw_read::total          71469147                       # Total read bandwidth from this memory (bytes/s)
system.mem_ctrl.dram.bw_inst_read::.cpu.inst       125031                       # Instruction read bandwidth from this memory (bytes/s)
system.mem_ctrl.dram.bw_inst_read::total       125031                       # Instruction read bandwidth from this memory (bytes/s)
system.mem_ctrl.dram.bw_write::.writebacks     62764006                       # Write bandwidth from this memory (bytes/s)
system.mem_ctrl.dram.bw_write::total         62764006                       # Write bandwidth from this memory (bytes/s)
system.mem_ctrl.dram.bw_total::.writebacks     62764006                       # Total bandwidth to/from this memory (bytes/s)
system.mem_ctrl.dram.bw_total::.cpu.inst       125031                       # Total bandwidth to/from this memory (bytes/s)
system.mem_ctrl.dram.bw_total::.cpu.data     71344116                       # Total bandwidth to/from this memory (bytes/s)
system.mem_ctrl.dram.bw_total::total        134233152                       # Total bandwidth to/from this memory (bytes/s)
system.mem_ctrl.dram.readBursts               2921969                       # Number of DRAM read bursts
system.mem_ctrl.dram.writeBursts              2566130                       # Number of DRAM write bursts
system.mem_ctrl.dram.perBankRdBursts::0        184235                       # Per bank write bursts
system.mem_ctrl.dram.perBankRdBursts::1        184162                       # Per bank write bursts
system.mem_ctrl.dram.perBankRdBursts::2        183929                       # Per bank write bursts
system.mem_ctrl.dram.perBankRdBursts::3        183340                       # Per bank write bursts
system.mem_ctrl.dram.perBankRdBursts::4        183467                       # Per bank write bursts
system.mem_ctrl.dram.perBankRdBursts::5        181031                       # Per bank write bursts
system.mem_ctrl.dram.perBankRdBursts::6        182390                       # Per bank write bursts
system.mem_ctrl.dram.perBankRdBursts::7        182660                       # Per bank write bursts
system.mem_ctrl.dram.perBankRdBursts::8        182151                       # Per bank write bursts
system.mem_ctrl.dram.perBankRdBursts::9        181345                       # Per bank write bursts
system.mem_ctrl.dram.perBankRdBursts::10       181604                       # Per bank write bursts
system.mem_ctrl.dram.perBankRdBursts::11       181653                       # Per bank write bursts
system.mem_ctrl.dram.perBankRdBursts::12       180770                       # Per bank write bursts
system.mem_ctrl.dram.perBankRdBursts::13       180964                       # Per bank write bursts
system.mem_ctrl.dram.perBankRdBursts::14       184134                       # Per bank write bursts
system.mem_ctrl.dram.perBankRdBursts::15       184134                       # Per bank write bursts
system.mem_ctrl.dram.perBankWrBursts::0        161304                       # Per bank write bursts
system.mem_ctrl.dram.perBankWrBursts::1        161266                       # Per bank write bursts
system.mem_ctrl.dram.perBankWrBursts::2        161333                       # Per bank write bursts
system.mem_ctrl.dram.perBankWrBursts::3        161362                       # Per bank write bursts
system.mem_ctrl.dram.perBankWrBursts::4        161486                       # Per bank write bursts
system.mem_ctrl.dram.perBankWrBursts::5        159324                       # Per bank write bursts
system.mem_ctrl.dram.perBankWrBursts::6        160471                       # Per bank write bursts
system.mem_ctrl.dram.perBankWrBursts::7        160436                       # Per bank write bursts
system.mem_ctrl.dram.perBankWrBursts::8        160234                       # Per bank write bursts
system.mem_ctrl.dram.perBankWrBursts::9        159318                       # Per bank write bursts
system.mem_ctrl.dram.perBankWrBursts::10       159414                       # Per bank write bursts
system.mem_ctrl.dram.perBankWrBursts::11       159376                       # Per bank write bursts
system.mem_ctrl.dram.perBankWrBursts::12       159011                       # Per bank write bursts
system.mem_ctrl.dram.perBankWrBursts::13       159154                       # Per bank write bursts
system.mem_ctrl.dram.perBankWrBursts::14       161334                       # Per bank write bursts
system.mem_ctrl.dram.perBankWrBursts::15       161307                       # Per bank write bursts
system.mem_ctrl.dram.totQLat              27241608250                       # Total ticks spent queuing
system.mem_ctrl.dram.totBusLat            14609845000                       # Total ticks spent in databus transfers
system.mem_ctrl.dram.totMemAccLat         82028527000                       # Total ticks spent from burst creation until serviced by the DRAM
system.mem_ctrl.dram.avgQLat                  9323.03                       # Average queueing delay per DRAM burst
system.mem_ctrl.dram.avgBusLat                5000.00                       # Average bus latency per DRAM burst
system.mem_ctrl.dram.avgMemAccLat            28073.03                       # Average memory access latency per DRAM burst
system.mem_ctrl.dram.readRowHits              2432450                       # Number of row buffer hits during reads
system.mem_ctrl.dram.writeRowHits             2210116                       # Number of row buffer hits during writes
system.mem_ctrl.dram.readRowHitRate             83.25                       # Row buffer hit rate for reads
system.mem_ctrl.dram.writeRowHitRate            86.13                       # Row buffer hit rate for writes
system.mem_ctrl.dram.bytesPerActivate::samples       845519                       # Bytes accessed per row activation
system.mem_ctrl.dram.bytesPerActivate::mean   415.408572                       # Bytes accessed per row activation
system.mem_ctrl.dram.bytesPerActivate::gmean   290.334565                       # Bytes accessed per row activation
system.mem_ctrl.dram.bytesPerActivate::stdev   309.279296                       # Bytes accessed per row activation
system.mem_ctrl.dram.bytesPerActivate::0-127       144655     17.11%     17.11% # Bytes accessed per row activation
system.mem_ctrl.dram.bytesPerActivate::128-255       170745     20.19%     37.30% # Bytes accessed per row activation
system.mem_ctrl.dram.bytesPerActivate::256-383        92586     10.95%     48.25% # Bytes accessed per row activation
system.mem_ctrl.dram.bytesPerActivate::384-511       102253     12.09%     60.35% # Bytes accessed per row activation
system.mem_ctrl.dram.bytesPerActivate::512-639       138766     16.41%     76.76% # Bytes accessed per row activation
system.mem_ctrl.dram.bytesPerActivate::640-767        44284      5.24%     82.00% # Bytes accessed per row activation
system.mem_ctrl.dram.bytesPerActivate::768-895        40509      4.79%     86.79% # Bytes accessed per row activation
system.mem_ctrl.dram.bytesPerActivate::896-1023        27441      3.25%     90.03% # Bytes accessed per row activation
system.mem_ctrl.dram.bytesPerActivate::1024-1151        84280      9.97%    100.00% # Bytes accessed per row activation
system.mem_ctrl.dram.bytesPerActivate::total       845519                       # Bytes accessed per row activation
system.mem_ctrl.dram.bytesRead              187006016                       # Total number of bytes read from DRAM
system.mem_ctrl.dram.bytesWritten           164232320                       # Total number of bytes written to DRAM
system.mem_ctrl.dram.avgRdBW                71.466530                       # Average DRAM read bandwidth in MiBytes/s
system.mem_ctrl.dram.avgWrBW                62.763296                       # Average DRAM write bandwidth in MiBytes/s
system.mem_ctrl.dram.peakBW                  12800.00                       # Theoretical peak bandwidth in MiByte/s
system.mem_ctrl.dram.busUtil                     1.05                       # Data bus utilization in percentage
system.mem_ctrl.dram.busUtilRead                 0.56                       # Data bus utilization in percentage for reads
system.mem_ctrl.dram.busUtilWrite                0.49                       # Data bus utilization in percentage for writes
system.mem_ctrl.dram.pageHitRate                84.59                       # Row buffer hit rate, read and write combined
system.mem_ctrl.dram.power_state.pwrStateResidencyTicks::UNDEFINED 2616693667000                       # Cumulative time (in ticks) in various power states
system.mem_ctrl.dram.rank0.actEnergy       3002027280                       # Energy for activate commands per rank (pJ)
system.mem_ctrl.dram.rank0.preEnergy       1595588775                       # Energy for precharge commands per rank (pJ)
system.mem_ctrl.dram.rank0.readEnergy     10461627960                       # Energy for read commands per rank (pJ)
system.mem_ctrl.dram.rank0.writeEnergy     6718046040                       # Energy for write commands per rank (pJ)
system.mem_ctrl.dram.rank0.refreshEnergy 206558991600.000031                       # Energy for refresh commands per rank (pJ)
system.mem_ctrl.dram.rank0.actBackEnergy 315961114650                       # Energy for active background per rank (pJ)
system.mem_ctrl.dram.rank0.preBackEnergy 738737850720                       # Energy for precharge background per rank (pJ)
system.mem_ctrl.dram.rank0.actPowerDownEnergy            0                       # Energy for active power-down per rank (pJ)
system.mem_ctrl.dram.rank0.prePowerDownEnergy            0                       # Energy for precharge power-down per rank (pJ)
system.mem_ctrl.dram.rank0.selfRefreshEnergy            0                       # Energy for self refresh per rank (pJ)
system.mem_ctrl.dram.rank0.totalEnergy   1283035247025                       # Total energy per rank (pJ)
system.mem_ctrl.dram.rank0.averagePower    490.326882                       # Core power per rank (mW)
system.mem_ctrl.dram.rank0.totalIdleTime            0                       # Total Idle time Per DRAM Rank
system.mem_ctrl.dram.rank0.pwrStateTime::IDLE 1916462199250                       # Time in different power states
system.mem_ctrl.dram.rank0.pwrStateTime::REF  87376900000                       # Time in different power states
system.mem_ctrl.dram.rank0.pwrStateTime::SREF            0                       # Time in different power states
system.mem_ctrl.dram.rank0.pwrStateTime::PRE_PDN            0                       # Time in different power states
system.mem_ctrl.dram.rank0.pwrStateTime::ACT 612854567750                       # Time in different power states
system.mem_ctrl.dram.rank0.pwrStateTime::ACT_PDN            0                       # Time in different power states
system.mem_ctrl.dram.rank1.actEnergy       3035078340                       # Energy for activate commands per rank (pJ)
system.mem_ctrl.dram.rank1.preEnergy       1613155830                       # Energy for precharge commands per rank (pJ)
system.mem_ctrl.dram.rank1.readEnergy     10401230700                       # Energy for read commands per rank (pJ)
system.mem_ctrl.dram.rank1.writeEnergy     6677152560                       # Energy for write commands per rank (pJ)
system.mem_ctrl.dram.rank1.refreshEnergy 206558991600.000031                       # Energy for refresh commands per rank (pJ)
system.mem_ctrl.dram.rank1.actBackEnergy 314648278680                       # Energy for active background per rank (pJ)
system.mem_ctrl.dram.rank1.preBackEnergy 739843396800                       # Energy for precharge background per rank (pJ)
system.mem_ctrl.dram.rank1.actPowerDownEnergy            0                       # Energy for active power-down per rank (pJ)
system.mem_ctrl.dram.rank1.prePowerDownEnergy            0                       # Energy for precharge power-down per rank (pJ)
system.mem_ctrl.dram.rank1.selfRefreshEnergy            0                       # Energy for self refresh per rank (pJ)
system.mem_ctrl.dram.rank1.totalEnergy   1282777284510                       # Total energy per rank (pJ)
system.mem_ctrl.dram.rank1.averagePower    490.228299                       # Core power per rank (mW)
system.mem_ctrl.dram.rank1.totalIdleTime            0                       # Total Idle time Per DRAM Rank
system.mem_ctrl.dram.rank1.pwrStateTime::IDLE 1919398703250                       # Time in different power states
system.mem_ctrl.dram.rank1.pwrStateTime::REF  87376900000                       # Time in different power states
system.mem_ctrl.dram.rank1.pwrStateTime::SREF            0                       # Time in different power states
system.mem_ctrl.dram.rank1.pwrStateTime::PRE_PDN            0                       # Time in different power states
system.mem_ctrl.dram.rank1.pwrStateTime::ACT 609918063750                       # Time in different power states
system.mem_ctrl.dram.rank1.pwrStateTime::ACT_PDN            0                       # Time in different power states
system.mem_ctrl.power_state.pwrStateResidencyTicks::UNDEFINED 2616693667000                       # Cumulative time (in ticks) in various power states
system.membus.trans_dist::ReadResp            2199324                       # Transaction distribution
system.membus.trans_dist::WritebackDirty      2566159                       # Transaction distribution
system.membus.trans_dist::CleanEvict           347700                       # Transaction distribution
system.membus.trans_dist::ReadExReq            722752                       # Transaction distribution
system.membus.trans_dist::ReadExResp           722752                       # Transaction distribution
system.membus.trans_dist::ReadSharedReq       2199324                       # Transaction distribution
system.membus.pkt_count_system.l2cache.mem_side_port::system.mem_ctrl.port      8758011                       # Packet count per connected requestor and responder (bytes)
system.membus.pkt_count_system.l2cache.mem_side_port::total      8758011                       # Packet count per connected requestor and responder (bytes)
system.membus.pkt_count::total                8758011                       # Packet count per connected requestor and responder (bytes)
system.membus.pkt_size_system.l2cache.mem_side_port::system.mem_ctrl.port    351247040                       # Cumulative packet size per connected requestor and responder (bytes)
system.membus.pkt_size_system.l2cache.mem_side_port::total    351247040                       # Cumulative packet size per connected requestor and responder (bytes)
system.membus.pkt_size::total               351247040                       # Cumulative packet size per connected requestor and responder (bytes)
system.membus.snoops                                0                       # Total snoops (count)
system.membus.snoopTraffic                          0                       # Total snoop traffic (bytes)
system.membus.snoop_fanout::samples           2922076                       # Request fanout histogram
system.membus.snoop_fanout::mean                    0                       # Request fanout histogram
system.membus.snoop_fanout::stdev                   0                       # Request fanout histogram
system.membus.snoop_fanout::underflows              0      0.00%      0.00% # Request fanout histogram
system.membus.snoop_fanout::0                 2922076    100.00%    100.00% # Request fanout histogram
system.membus.snoop_fanout::1                       0      0.00%    100.00% # Request fanout histogram
system.membus.snoop_fanout::overflows               0      0.00%    100.00% # Request fanout histogram
system.membus.snoop_fanout::min_value               0                       # Request fanout histogram
system.membus.snoop_fanout::max_value               0                       # Request fanout histogram
system.membus.snoop_fanout::total             2922076                       # Request fanout histogram
system.membus.power_state.pwrStateResidencyTicks::UNDEFINED 2616693667000                       # Cumulative time (in ticks) in various power states
system.membus.reqLayer2.occupancy         16100571000                       # Layer occupancy (ticks)
system.membus.reqLayer2.utilization               0.6                       # Layer utilization (%)
system.membus.respLayer0.occupancy        15491530500                       # Layer occupancy (ticks)
system.membus.respLayer0.utilization              0.6                       # Layer utilization (%)

---------- End Simulation Statistics   ----------
