
---------- Begin Simulation Statistics ----------
final_tick                               128198822000                       # Number of ticks from beginning of simulation (restored from checkpoints and never reset)
host_inst_rate                                 483256                       # Simulator instruction rate (inst/s)
host_mem_usage                                 648352                       # Number of bytes of host memory used
host_op_rate                                   834896                       # Simulator op (including micro ops) rate (op/s)
host_seconds                                    64.49                       # Real time elapsed on the host
host_tick_rate                             1988014741                       # Simulator tick rate (ticks/s)
sim_freq                                 1000000000000                       # Frequency of simulated ticks
sim_insts                                    31163036                       # Number of instructions simulated
sim_ops                                      53838954                       # Number of ops (including micro ops) simulated
sim_seconds                                  0.128199                       # Number of seconds simulated
sim_ticks                                128198822000                       # Number of ticks simulated
system.cpu.Branches                           3147841                       # Number of branches fetched
system.cpu.committedInsts                    31163036                       # Number of instructions committed
system.cpu.committedOps                      53838954                       # Number of ops (including micro ops) committed
system.cpu.idle_fraction                     0.000000                       # Percentage of idle cycles
system.cpu.not_idle_fraction                 1.000000                       # Percentage of non-idle cycles
system.cpu.numCycles                        128198822                       # number of cpu cycles simulated
system.cpu.numWorkItemsCompleted                    0                       # number of work items this cpu completed
system.cpu.numWorkItemsStarted                      0                       # number of work items this cpu started
system.cpu.num_busy_cycles               128198821.999000                       # Number of busy cycles
system.cpu.num_cc_register_reads             14821783                       # number of times the CC registers were read
system.cpu.num_cc_register_writes            15871077                       # number of times the CC registers were written
system.cpu.num_conditional_control_insts      2621491                       # number of instructions that are conditional controls
system.cpu.num_fp_alu_accesses               17960391                       # Number of float alu accesses
system.cpu.num_fp_insts                      17960391                       # number of float instructions
system.cpu.num_fp_register_reads             32379963                       # number of times the floating registers were read
system.cpu.num_fp_register_writes            16583137                       # number of times the floating registers were written
system.cpu.num_func_calls                      525556                       # number of times a function call or return occured
system.cpu.num_idle_cycles                   0.001000                       # Number of idle cycles
system.cpu.num_int_alu_accesses              39665992                       # Number of integer alu accesses
system.cpu.num_int_insts                     39665992                       # number of integer instructions
system.cpu.num_int_register_reads            74188914                       # number of times the integer registers were read
system.cpu.num_int_register_writes           30192723                       # number of times the integer registers were written
system.cpu.num_load_insts                     6721542                       # Number of load instructions
system.cpu.num_mem_refs                      10374028                       # number of memory refs
system.cpu.num_store_insts                    3652486                       # Number of store instructions
system.cpu.num_vec_alu_accesses                     0                       # Number of vector alu accesses
system.cpu.num_vec_insts                            0                       # number of vector instructions
system.cpu.num_vec_register_reads                   0                       # number of times the vector registers were read
system.cpu.num_vec_register_writes                  0                       # number of times the vector registers were written
system.cpu.op_class::No_OpClass                277415      0.52%      0.52% # Class of executed instruction
system.cpu.op_class::IntAlu                  29881491     55.50%     56.02% # Class of executed instruction
system.cpu.op_class::IntMult                       28      0.00%     56.02% # Class of executed instruction
system.cpu.op_class::IntDiv                       182      0.00%     56.02% # Class of executed instruction
system.cpu.op_class::FloatAdd                 1573060      2.92%     58.94% # Class of executed instruction
system.cpu.op_class::FloatCmp                       0      0.00%     58.94% # Class of executed instruction
system.cpu.op_class::FloatCvt                       0      0.00%     58.94% # Class of executed instruction
system.cpu.op_class::FloatMult                      0      0.00%     58.94% # Class of executed instruction
system.cpu.op_class::FloatMultAcc                   0      0.00%     58.94% # Class of executed instruction
system.cpu.op_class::FloatDiv                       0      0.00%     58.94% # Class of executed instruction
system.cpu.op_class::FloatMisc                      0      0.00%     58.94% # Class of executed instruction
system.cpu.op_class::FloatSqrt                      0      0.00%     58.94% # Class of executed instruction
system.cpu.op_class::SimdAdd                    32770      0.06%     59.00% # Class of executed instruction
system.cpu.op_class::SimdAddAcc                     0      0.00%     59.00% # Class of executed instruction
system.cpu.op_class::SimdAlu                  2097654      3.90%     62.90% # Class of executed instruction
system.cpu.op_class::SimdCmp                        6      0.00%     62.90% # Class of executed instruction
system.cpu.op_class::SimdCvt                    33224      0.06%     62.96% # Class of executed instruction
system.cpu.op_class::SimdMisc                 2163418      4.02%     66.98% # Class of executed instruction
system.cpu.op_class::SimdMult                       0      0.00%     66.98% # Class of executed instruction
system.cpu.op_class::SimdMultAcc                    0      0.00%     66.98% # Class of executed instruction
system.cpu.op_class::SimdShift                      6      0.00%     66.98% # Class of executed instruction
system.cpu.op_class::SimdShiftAcc                   0      0.00%     66.98% # Class of executed instruction
system.cpu.op_class::SimdDiv                        0      0.00%     66.98% # Class of executed instruction
system.cpu.op_class::SimdSqrt                       0      0.00%     66.98% # Class of executed instruction
system.cpu.op_class::SimdFloatAdd             1769545      3.29%     70.26% # Class of executed instruction
system.cpu.op_class::SimdFloatAlu                   0      0.00%     70.26% # Class of executed instruction
system.cpu.op_class::SimdFloatCmp                   0      0.00%     70.26% # Class of executed instruction
system.cpu.op_class::SimdFloatCvt             2162696      4.02%     74.28% # Class of executed instruction
system.cpu.op_class::SimdFloatDiv                   2      0.00%     74.28% # Class of executed instruction
system.cpu.op_class::SimdFloatMisc                  0      0.00%     74.28% # Class of executed instruction
system.cpu.op_class::SimdFloatMult            3473479      6.45%     80.73% # Class of executed instruction
system.cpu.op_class::SimdFloatMultAcc               0      0.00%     80.73% # Class of executed instruction
system.cpu.op_class::SimdFloatSqrt                  0      0.00%     80.73% # Class of executed instruction
system.cpu.op_class::SimdReduceAdd                  0      0.00%     80.73% # Class of executed instruction
system.cpu.op_class::SimdReduceAlu                  0      0.00%     80.73% # Class of executed instruction
system.cpu.op_class::SimdReduceCmp                  0      0.00%     80.73% # Class of executed instruction
system.cpu.op_class::SimdFloatReduceAdd             0      0.00%     80.73% # Class of executed instruction
system.cpu.op_class::SimdFloatReduceCmp             0      0.00%     80.73% # Class of executed instruction
system.cpu.op_class::SimdAes                        0      0.00%     80.73% # Class of executed instruction
system.cpu.op_class::SimdAesMix                     0      0.00%     80.73% # Class of executed instruction
system.cpu.op_class::SimdSha1Hash                   0      0.00%     80.73% # Class of executed instruction
system.cpu.op_class::SimdSha1Hash2                  0      0.00%     80.73% # Class of executed instruction
system.cpu.op_class::SimdSha256Hash                 0      0.00%     80.73% # Class of executed instruction
system.cpu.op_class::SimdSha256Hash2                0      0.00%     80.73% # Class of executed instruction
system.cpu.op_class::SimdShaSigma2                  0      0.00%     80.73% # Class of executed instruction
system.cpu.op_class::SimdShaSigma3                  0      0.00%     80.73% # Class of executed instruction
system.cpu.op_class::SimdPredAlu                    0      0.00%     80.73% # Class of executed instruction
system.cpu.op_class::MemRead                  5082682      9.44%     90.17% # Class of executed instruction
system.cpu.op_class::MemWrite                 3389653      6.30%     96.47% # Class of executed instruction
system.cpu.op_class::FloatMemRead             1638860      3.04%     99.51% # Class of executed instruction
system.cpu.op_class::FloatMemWrite             262833      0.49%    100.00% # Class of executed instruction
system.cpu.op_class::IprAccess                      0      0.00%    100.00% # Class of executed instruction
system.cpu.op_class::InstPrefetch                   0      0.00%    100.00% # Class of executed instruction
system.cpu.op_class::total                   53839004                       # Class of executed instruction
system.cpu.workload.numSyscalls                    46                       # Number of system calls
system.l2bus.snoop_filter.hit_multi_requests            0                       # Number of requests hitting in the snoop filter with multiple (>1) holders of the requested data.
system.l2bus.snoop_filter.hit_multi_snoops            0                       # Number of snoops hitting in the snoop filter with multiple (>1) holders of the requested data.
system.l2bus.snoop_filter.hit_single_requests       249850                       # Number of requests hitting in the snoop filter with a single holder of the requested data.
system.l2bus.snoop_filter.hit_single_snoops         2871                       # Number of snoops hitting in the snoop filter with a single holder of the requested data.
system.l2bus.snoop_filter.tot_requests         500979                       # Total number of requests made to the snoop filter.
system.l2bus.snoop_filter.tot_snoops             2871                       # Total number of snoops made to the snoop filter.
system.membus.snoop_filter.hit_multi_requests            0                       # Number of requests hitting in the snoop filter with multiple (>1) holders of the requested data.
system.membus.snoop_filter.hit_multi_snoops            0                       # Number of snoops hitting in the snoop filter with multiple (>1) holders of the requested data.
system.membus.snoop_filter.hit_single_requests       177487                       # Number of requests hitting in the snoop filter with a single holder of the requested data.
system.membus.snoop_filter.hit_single_snoops            0                       # Number of snoops hitting in the snoop filter with a single holder of the requested data.
system.membus.snoop_filter.tot_requests        359156                       # Total number of requests made to the snoop filter.
system.membus.snoop_filter.tot_snoops               0                       # Total number of snoops made to the snoop filter.
system.clk_domain.clock                          1000                       # Clock period in ticks
system.clk_domain.voltage_domain.voltage            1                       # Voltage in Volts
system.cpu.dcache.demand_hits::.cpu.data     10128036                       # number of demand (read+write) hits
system.cpu.dcache.demand_hits::total         10128036                       # number of demand (read+write) hits
system.cpu.dcache.overall_hits::.cpu.data     10128036                       # number of overall hits
system.cpu.dcache.overall_hits::total        10128036                       # number of overall hits
system.cpu.dcache.demand_misses::.cpu.data       250135                       # number of demand (read+write) misses
system.cpu.dcache.demand_misses::total         250135                       # number of demand (read+write) misses
system.cpu.dcache.overall_misses::.cpu.data       250135                       # number of overall misses
system.cpu.dcache.overall_misses::total        250135                       # number of overall misses
system.cpu.dcache.demand_miss_latency::.cpu.data  21141175000                       # number of demand (read+write) miss cycles
system.cpu.dcache.demand_miss_latency::total  21141175000                       # number of demand (read+write) miss cycles
system.cpu.dcache.overall_miss_latency::.cpu.data  21141175000                       # number of overall miss cycles
system.cpu.dcache.overall_miss_latency::total  21141175000                       # number of overall miss cycles
system.cpu.dcache.demand_accesses::.cpu.data     10378171                       # number of demand (read+write) accesses
system.cpu.dcache.demand_accesses::total     10378171                       # number of demand (read+write) accesses
system.cpu.dcache.overall_accesses::.cpu.data     10378171                       # number of overall (read+write) accesses
system.cpu.dcache.overall_accesses::total     10378171                       # number of overall (read+write) accesses
system.cpu.dcache.demand_miss_rate::.cpu.data     0.024102                       # miss rate for demand accesses
system.cpu.dcache.demand_miss_rate::total     0.024102                       # miss rate for demand accesses
system.cpu.dcache.overall_miss_rate::.cpu.data     0.024102                       # miss rate for overall accesses
system.cpu.dcache.overall_miss_rate::total     0.024102                       # miss rate for overall accesses
system.cpu.dcache.demand_avg_miss_latency::.cpu.data 84519.059708                       # average overall miss latency
system.cpu.dcache.demand_avg_miss_latency::total 84519.059708                       # average overall miss latency
system.cpu.dcache.overall_avg_miss_latency::.cpu.data 84519.059708                       # average overall miss latency
system.cpu.dcache.overall_avg_miss_latency::total 84519.059708                       # average overall miss latency
system.cpu.dcache.blocked_cycles::no_mshrs            0                       # number of cycles access was blocked
system.cpu.dcache.blocked_cycles::no_targets            0                       # number of cycles access was blocked
system.cpu.dcache.blocked::no_mshrs                 0                       # number of cycles access was blocked
system.cpu.dcache.blocked::no_targets               0                       # number of cycles access was blocked
system.cpu.dcache.avg_blocked_cycles::no_mshrs          nan                       # average number of cycles each access was blocked
system.cpu.dcache.avg_blocked_cycles::no_targets          nan                       # average number of cycles each access was blocked
system.cpu.dcache.writebacks::.writebacks       126243                       # number of writebacks
system.cpu.dcache.writebacks::total            126243                       # number of writebacks
system.cpu.dcache.demand_mshr_misses::.cpu.data       250135                       # number of demand (read+write) MSHR misses
system.cpu.dcache.demand_mshr_misses::total       250135                       # number of demand (read+write) MSHR misses
system.cpu.dcache.overall_mshr_misses::.cpu.data       250135                       # number of overall MSHR misses
system.cpu.dcache.overall_mshr_misses::total       250135                       # number of overall MSHR misses
system.cpu.dcache.demand_mshr_miss_latency::.cpu.data  20640905000                       # number of demand (read+write) MSHR miss cycles
system.cpu.dcache.demand_mshr_miss_latency::total  20640905000                       # number of demand (read+write) MSHR miss cycles
system.cpu.dcache.overall_mshr_miss_latency::.cpu.data  20640905000                       # number of overall MSHR miss cycles
system.cpu.dcache.overall_mshr_miss_latency::total  20640905000                       # number of overall MSHR miss cycles
system.cpu.dcache.demand_mshr_miss_rate::.cpu.data     0.024102                       # mshr miss rate for demand accesses
system.cpu.dcache.demand_mshr_miss_rate::total     0.024102                       # mshr miss rate for demand accesses
system.cpu.dcache.overall_mshr_miss_rate::.cpu.data     0.024102                       # mshr miss rate for overall accesses
system.cpu.dcache.overall_mshr_miss_rate::total     0.024102                       # mshr miss rate for overall accesses
system.cpu.dcache.demand_avg_mshr_miss_latency::.cpu.data 82519.059708                       # average overall mshr miss latency
system.cpu.dcache.demand_avg_mshr_miss_latency::total 82519.059708                       # average overall mshr miss latency
system.cpu.dcache.overall_avg_mshr_miss_latency::.cpu.data 82519.059708                       # average overall mshr miss latency
system.cpu.dcache.overall_avg_mshr_miss_latency::total 82519.059708                       # average overall mshr miss latency
system.cpu.dcache.replacements                 249111                       # number of replacements
system.cpu.dcache.ReadReq_hits::.cpu.data      6579488                       # number of ReadReq hits
system.cpu.dcache.ReadReq_hits::total         6579488                       # number of ReadReq hits
system.cpu.dcache.ReadReq_misses::.cpu.data       146176                       # number of ReadReq misses
system.cpu.dcache.ReadReq_misses::total        146176                       # number of ReadReq misses
system.cpu.dcache.ReadReq_miss_latency::.cpu.data  13266962000                       # number of ReadReq miss cycles
system.cpu.dcache.ReadReq_miss_latency::total  13266962000                       # number of ReadReq miss cycles
system.cpu.dcache.ReadReq_accesses::.cpu.data      6725664                       # number of ReadReq accesses(hits+misses)
system.cpu.dcache.ReadReq_accesses::total      6725664                       # number of ReadReq accesses(hits+misses)
system.cpu.dcache.ReadReq_miss_rate::.cpu.data     0.021734                       # miss rate for ReadReq accesses
system.cpu.dcache.ReadReq_miss_rate::total     0.021734                       # miss rate for ReadReq accesses
system.cpu.dcache.ReadReq_avg_miss_latency::.cpu.data 90760.193192                       # average ReadReq miss latency
system.cpu.dcache.ReadReq_avg_miss_latency::total 90760.193192                       # average ReadReq miss latency
system.cpu.dcache.ReadReq_mshr_misses::.cpu.data       146176                       # number of ReadReq MSHR misses
system.cpu.dcache.ReadReq_mshr_misses::total       146176                       # number of ReadReq MSHR misses
system.cpu.dcache.ReadReq_mshr_miss_latency::.cpu.data  12974610000                       # number of ReadReq MSHR miss cycles
system.cpu.dcache.ReadReq_mshr_miss_latency::total  12974610000                       # number of ReadReq MSHR miss cycles
system.cpu.dcache.ReadReq_mshr_miss_rate::.cpu.data     0.021734                       # mshr miss rate for ReadReq accesses
system.cpu.dcache.ReadReq_mshr_miss_rate::total     0.021734                       # mshr miss rate for ReadReq accesses
system.cpu.dcache.ReadReq_avg_mshr_miss_latency::.cpu.data 88760.193192                       # average ReadReq mshr miss latency
system.cpu.dcache.ReadReq_avg_mshr_miss_latency::total 88760.193192                       # average ReadReq mshr miss latency
system.cpu.dcache.WriteReq_hits::.cpu.data      3548548                       # number of WriteReq hits
system.cpu.dcache.WriteReq_hits::total        3548548                       # number of WriteReq hits
system.cpu.dcache.WriteReq_misses::.cpu.data       103959                       # number of WriteReq misses
system.cpu.dcache.WriteReq_misses::total       103959                       # number of WriteReq misses
system.cpu.dcache.WriteReq_miss_latency::.cpu.data   7874213000                       # number of WriteReq miss cycles
system.cpu.dcache.WriteReq_miss_latency::total   7874213000                       # number of WriteReq miss cycles
system.cpu.dcache.WriteReq_accesses::.cpu.data      3652507                       # number of WriteReq accesses(hits+misses)
system.cpu.dcache.WriteReq_accesses::total      3652507                       # number of WriteReq accesses(hits+misses)
system.cpu.dcache.WriteReq_miss_rate::.cpu.data     0.028462                       # miss rate for WriteReq accesses
system.cpu.dcache.WriteReq_miss_rate::total     0.028462                       # miss rate for WriteReq accesses
system.cpu.dcache.WriteReq_avg_miss_latency::.cpu.data 75743.446936                       # average WriteReq miss latency
system.cpu.dcache.WriteReq_avg_miss_latency::total 75743.446936                       # average WriteReq miss latency
system.cpu.dcache.WriteReq_mshr_misses::.cpu.data       103959                       # number of WriteReq MSHR misses
system.cpu.dcache.WriteReq_mshr_misses::total       103959                       # number of WriteReq MSHR misses
system.cpu.dcache.WriteReq_mshr_miss_latency::.cpu.data   7666295000                       # number of WriteReq MSHR miss cycles
system.cpu.dcache.WriteReq_mshr_miss_latency::total   7666295000                       # number of WriteReq MSHR miss cycles
system.cpu.dcache.WriteReq_mshr_miss_rate::.cpu.data     0.028462                       # mshr miss rate for WriteReq accesses
system.cpu.dcache.WriteReq_mshr_miss_rate::total     0.028462                       # mshr miss rate for WriteReq accesses
system.cpu.dcache.WriteReq_avg_mshr_miss_latency::.cpu.data 73743.446936                       # average WriteReq mshr miss latency
system.cpu.dcache.WriteReq_avg_mshr_miss_latency::total 73743.446936                       # average WriteReq mshr miss latency
system.cpu.dcache.power_state.pwrStateResidencyTicks::UNDEFINED 128198822000                       # Cumulative time (in ticks) in various power states
system.cpu.dcache.tags.tagsinuse           994.257718                       # Cycle average of tags in use
system.cpu.dcache.tags.total_refs            10378171                       # Total number of references to valid blocks.
system.cpu.dcache.tags.sampled_refs            250135                       # Sample count of references to valid blocks.
system.cpu.dcache.tags.avg_refs             41.490279                       # Average number of references to valid blocks.
system.cpu.dcache.tags.warmup_cycle            224000                       # Cycle when the warmup percentage was hit.
system.cpu.dcache.tags.occ_blocks::.cpu.data   994.257718                       # Average occupied blocks per requestor
system.cpu.dcache.tags.occ_percent::.cpu.data     0.970955                       # Average percentage of cache occupancy
system.cpu.dcache.tags.occ_percent::total     0.970955                       # Average percentage of cache occupancy
system.cpu.dcache.tags.occ_task_id_blocks::1024         1024                       # Occupied blocks per task id
system.cpu.dcache.tags.age_task_id_blocks_1024::0           20                       # Occupied blocks per task id
system.cpu.dcache.tags.age_task_id_blocks_1024::1           44                       # Occupied blocks per task id
system.cpu.dcache.tags.age_task_id_blocks_1024::2          960                       # Occupied blocks per task id
system.cpu.dcache.tags.occ_task_id_percent::1024            1                       # Percentage of cache occupancy per task id
system.cpu.dcache.tags.tag_accesses          21006477                       # Number of tag accesses
system.cpu.dcache.tags.data_accesses         21006477                       # Number of data accesses
system.cpu.dcache.tags.power_state.pwrStateResidencyTicks::UNDEFINED 128198822000                       # Cumulative time (in ticks) in various power states
system.cpu.dtb.rdAccesses                     6725665                       # TLB accesses on read requests
system.cpu.dtb.wrAccesses                     3652510                       # TLB accesses on write requests
system.cpu.dtb.rdMisses                          1853                       # TLB misses on read requests
system.cpu.dtb.wrMisses                         35717                       # TLB misses on write requests
system.cpu.dtb.walker.power_state.pwrStateResidencyTicks::UNDEFINED 128198822000                       # Cumulative time (in ticks) in various power states
system.cpu.icache.demand_hits::.cpu.inst     43359491                       # number of demand (read+write) hits
system.cpu.icache.demand_hits::total         43359491                       # number of demand (read+write) hits
system.cpu.icache.overall_hits::.cpu.inst     43359491                       # number of overall hits
system.cpu.icache.overall_hits::total        43359491                       # number of overall hits
system.cpu.icache.demand_misses::.cpu.inst          994                       # number of demand (read+write) misses
system.cpu.icache.demand_misses::total            994                       # number of demand (read+write) misses
system.cpu.icache.overall_misses::.cpu.inst          994                       # number of overall misses
system.cpu.icache.overall_misses::total           994                       # number of overall misses
system.cpu.icache.demand_miss_latency::.cpu.inst     90949000                       # number of demand (read+write) miss cycles
system.cpu.icache.demand_miss_latency::total     90949000                       # number of demand (read+write) miss cycles
system.cpu.icache.overall_miss_latency::.cpu.inst     90949000                       # number of overall miss cycles
system.cpu.icache.overall_miss_latency::total     90949000                       # number of overall miss cycles
system.cpu.icache.demand_accesses::.cpu.inst     43360485                       # number of demand (read+write) accesses
system.cpu.icache.demand_accesses::total     43360485                       # number of demand (read+write) accesses
system.cpu.icache.overall_accesses::.cpu.inst     43360485                       # number of overall (read+write) accesses
system.cpu.icache.overall_accesses::total     43360485                       # number of overall (read+write) accesses
system.cpu.icache.demand_miss_rate::.cpu.inst     0.000023                       # miss rate for demand accesses
system.cpu.icache.demand_miss_rate::total     0.000023                       # miss rate for demand accesses
system.cpu.icache.overall_miss_rate::.cpu.inst     0.000023                       # miss rate for overall accesses
system.cpu.icache.overall_miss_rate::total     0.000023                       # miss rate for overall accesses
system.cpu.icache.demand_avg_miss_latency::.cpu.inst 91497.987928                       # average overall miss latency
system.cpu.icache.demand_avg_miss_latency::total 91497.987928                       # average overall miss latency
system.cpu.icache.overall_avg_miss_latency::.cpu.inst 91497.987928                       # average overall miss latency
system.cpu.icache.overall_avg_miss_latency::total 91497.987928                       # average overall miss latency
system.cpu.icache.blocked_cycles::no_mshrs            0                       # number of cycles access was blocked
system.cpu.icache.blocked_cycles::no_targets            0                       # number of cycles access was blocked
system.cpu.icache.blocked::no_mshrs                 0                       # number of cycles access was blocked
system.cpu.icache.blocked::no_targets               0                       # number of cycles access was blocked
system.cpu.icache.avg_blocked_cycles::no_mshrs          nan                       # average number of cycles each access was blocked
system.cpu.icache.avg_blocked_cycles::no_targets          nan                       # average number of cycles each access was blocked
system.cpu.icache.demand_mshr_misses::.cpu.inst          994                       # number of demand (read+write) MSHR misses
system.cpu.icache.demand_mshr_misses::total          994                       # number of demand (read+write) MSHR misses
system.cpu.icache.overall_mshr_misses::.cpu.inst          994                       # number of overall MSHR misses
system.cpu.icache.overall_mshr_misses::total          994                       # number of overall MSHR misses
system.cpu.icache.demand_mshr_miss_latency::.cpu.inst     88961000                       # number of demand (read+write) MSHR miss cycles
system.cpu.icache.demand_mshr_miss_latency::total     88961000                       # number of demand (read+write) MSHR miss cycles
system.cpu.icache.overall_mshr_miss_latency::.cpu.inst     88961000                       # number of overall MSHR miss cycles
system.cpu.icache.overall_mshr_miss_latency::total     88961000                       # number of overall MSHR miss cycles
system.cpu.icache.demand_mshr_miss_rate::.cpu.inst     0.000023                       # mshr miss rate for demand accesses
system.cpu.icache.demand_mshr_miss_rate::total     0.000023                       # mshr miss rate for demand accesses
system.cpu.icache.overall_mshr_miss_rate::.cpu.inst     0.000023                       # mshr miss rate for overall accesses
system.cpu.icache.overall_mshr_miss_rate::total     0.000023                       # mshr miss rate for overall accesses
system.cpu.icache.demand_avg_mshr_miss_latency::.cpu.inst 89497.987928                       # average overall mshr miss latency
system.cpu.icache.demand_avg_mshr_miss_latency::total 89497.987928                       # average overall mshr miss latency
system.cpu.icache.overall_avg_mshr_miss_latency::.cpu.inst 89497.987928                       # average overall mshr miss latency
system.cpu.icache.overall_avg_mshr_miss_latency::total 89497.987928                       # average overall mshr miss latency
system.cpu.icache.replacements                    739                       # number of replacements
system.cpu.icache.ReadReq_hits::.cpu.inst     43359491                       # number of ReadReq hits
system.cpu.icache.ReadReq_hits::total        43359491                       # number of ReadReq hits
system.cpu.icache.ReadReq_misses::.cpu.inst          994                       # number of ReadReq misses
system.cpu.icache.ReadReq_misses::total           994                       # number of ReadReq misses
system.cpu.icache.ReadReq_miss_latency::.cpu.inst     90949000                       # number of ReadReq miss cycles
system.cpu.icache.ReadReq_miss_latency::total     90949000                       # number of ReadReq miss cycles
system.cpu.icache.ReadReq_accesses::.cpu.inst     43360485                       # number of ReadReq accesses(hits+misses)
system.cpu.icache.ReadReq_accesses::total     43360485                       # number of ReadReq accesses(hits+misses)
system.cpu.icache.ReadReq_miss_rate::.cpu.inst     0.000023                       # miss rate for ReadReq accesses
system.cpu.icache.ReadReq_miss_rate::total     0.000023                       # miss rate for ReadReq accesses
system.cpu.icache.ReadReq_avg_miss_latency::.cpu.inst 91497.987928                       # average ReadReq miss latency
system.cpu.icache.ReadReq_avg_miss_latency::total 91497.987928                       # average ReadReq miss latency
system.cpu.icache.ReadReq_mshr_misses::.cpu.inst          994                       # number of ReadReq MSHR misses
system.cpu.icache.ReadReq_mshr_misses::total          994                       # number of ReadReq MSHR misses
system.cpu.icache.ReadReq_mshr_miss_latency::.cpu.inst     88961000                       # number of ReadReq MSHR miss cycles
system.cpu.icache.ReadReq_mshr_miss_latency::total     88961000                       # number of ReadReq MSHR miss cycles
system.cpu.icache.ReadReq_mshr_miss_rate::.cpu.inst     0.000023                       # mshr miss rate for ReadReq accesses
system.cpu.icache.ReadReq_mshr_miss_rate::total     0.000023                       # mshr miss rate for ReadReq accesses
system.cpu.icache.ReadReq_avg_mshr_miss_latency::.cpu.inst 89497.987928                       # average ReadReq mshr miss latency
system.cpu.icache.ReadReq_avg_mshr_miss_latency::total 89497.987928                       # average ReadReq mshr miss latency
system.cpu.icache.power_state.pwrStateResidencyTicks::UNDEFINED 128198822000                       # Cumulative time (in ticks) in various power states
system.cpu.icache.tags.tagsinuse           253.914322                       # Cycle average of tags in use
system.cpu.icache.tags.total_refs            43360485                       # Total number of references to valid blocks.
system.cpu.icache.tags.sampled_refs               994                       # Sample count of references to valid blocks.
system.cpu.icache.tags.avg_refs          43622.218310                       # Average number of references to valid blocks.
system.cpu.icache.tags.warmup_cycle            107000                       # Cycle when the warmup percentage was hit.
system.cpu.icache.tags.occ_blocks::.cpu.inst   253.914322                       # Average occupied blocks per requestor
system.cpu.icache.tags.occ_percent::.cpu.inst     0.991853                       # Average percentage of cache occupancy
system.cpu.icache.tags.occ_percent::total     0.991853                       # Average percentage of cache occupancy
system.cpu.icache.tags.occ_task_id_blocks::1024          255                       # Occupied blocks per task id
system.cpu.icache.tags.age_task_id_blocks_1024::0           52                       # Occupied blocks per task id
system.cpu.icache.tags.age_task_id_blocks_1024::1          119                       # Occupied blocks per task id
system.cpu.icache.tags.age_task_id_blocks_1024::2            9                       # Occupied blocks per task id
system.cpu.icache.tags.age_task_id_blocks_1024::3            1                       # Occupied blocks per task id
system.cpu.icache.tags.age_task_id_blocks_1024::4           74                       # Occupied blocks per task id
system.cpu.icache.tags.occ_task_id_percent::1024     0.996094                       # Percentage of cache occupancy per task id
system.cpu.icache.tags.tag_accesses          86721964                       # Number of tag accesses
system.cpu.icache.tags.data_accesses         86721964                       # Number of data accesses
system.cpu.icache.tags.power_state.pwrStateResidencyTicks::UNDEFINED 128198822000                       # Cumulative time (in ticks) in various power states
system.cpu.interrupts.clk_domain.clock          16000                       # Clock period in ticks
system.cpu.itb.rdAccesses                           0                       # TLB accesses on read requests
system.cpu.itb.wrAccesses                    43360485                       # TLB accesses on write requests
system.cpu.itb.rdMisses                             0                       # TLB misses on read requests
system.cpu.itb.wrMisses                            59                       # TLB misses on write requests
system.cpu.itb.walker.power_state.pwrStateResidencyTicks::UNDEFINED 128198822000                       # Cumulative time (in ticks) in various power states
system.cpu.power_state.pwrStateResidencyTicks::ON 128198822000                       # Cumulative time (in ticks) in various power states
system.cpu.thread_0.numInsts                        0                       # Number of Instructions committed
system.cpu.thread_0.numOps                          0                       # Number of Ops committed
system.cpu.thread_0.numMemRefs                      0                       # Number of Memory References
system.l2bus.trans_dist::ReadResp              147170                       # Transaction distribution
system.l2bus.trans_dist::WritebackDirty        185515                       # Transaction distribution
system.l2bus.trans_dist::CleanEvict            243222                       # Transaction distribution
system.l2bus.trans_dist::ReadExReq             103959                       # Transaction distribution
system.l2bus.trans_dist::ReadExResp            103959                       # Transaction distribution
system.l2bus.trans_dist::ReadSharedReq         147170                       # Transaction distribution
system.l2bus.pkt_count_system.cpu.icache.mem_side_port::system.l2cache.cpu_side_port         2727                       # Packet count per connected requestor and responder (bytes)
system.l2bus.pkt_count_system.cpu.dcache.mem_side_port::system.l2cache.cpu_side_port       749381                       # Packet count per connected requestor and responder (bytes)
system.l2bus.pkt_count::total                  752108                       # Packet count per connected requestor and responder (bytes)
system.l2bus.pkt_size_system.cpu.icache.mem_side_port::system.l2cache.cpu_side_port        63616                       # Cumulative packet size per connected requestor and responder (bytes)
system.l2bus.pkt_size_system.cpu.dcache.mem_side_port::system.l2cache.cpu_side_port     24088192                       # Cumulative packet size per connected requestor and responder (bytes)
system.l2bus.pkt_size::total                 24151808                       # Cumulative packet size per connected requestor and responder (bytes)
system.l2bus.snoops                            178887                       # Total snoops (count)
system.l2bus.snoopTraffic                     3793408                       # Total snoop traffic (bytes)
system.l2bus.snoop_fanout::samples             430016                       # Request fanout histogram
system.l2bus.snoop_fanout::mean              0.006676                       # Request fanout histogram
system.l2bus.snoop_fanout::stdev             0.081437                       # Request fanout histogram
system.l2bus.snoop_fanout::underflows               0      0.00%      0.00% # Request fanout histogram
system.l2bus.snoop_fanout::0                   427145     99.33%     99.33% # Request fanout histogram
system.l2bus.snoop_fanout::1                     2871      0.67%    100.00% # Request fanout histogram
system.l2bus.snoop_fanout::2                        0      0.00%    100.00% # Request fanout histogram
system.l2bus.snoop_fanout::overflows                0      0.00%    100.00% # Request fanout histogram
system.l2bus.snoop_fanout::min_value                0                       # Request fanout histogram
system.l2bus.snoop_fanout::max_value                1                       # Request fanout histogram
system.l2bus.snoop_fanout::total               430016                       # Request fanout histogram
system.l2bus.power_state.pwrStateResidencyTicks::UNDEFINED 128198822000                       # Cumulative time (in ticks) in various power states
system.l2bus.reqLayer0.occupancy            753465000                       # Layer occupancy (ticks)
system.l2bus.reqLayer0.utilization                0.6                       # Layer utilization (%)
system.l2bus.respLayer0.occupancy             2982000                       # Layer occupancy (ticks)
system.l2bus.respLayer0.utilization               0.0                       # Layer utilization (%)
system.l2bus.respLayer1.occupancy           750405000                       # Layer occupancy (ticks)
system.l2bus.respLayer1.utilization               0.6                       # Layer utilization (%)
system.l2cache.demand_hits::.cpu.inst             163                       # number of demand (read+write) hits
system.l2cache.demand_hits::.cpu.data           69297                       # number of demand (read+write) hits
system.l2cache.demand_hits::total               69460                       # number of demand (read+write) hits
system.l2cache.overall_hits::.cpu.inst            163                       # number of overall hits
system.l2cache.overall_hits::.cpu.data          69297                       # number of overall hits
system.l2cache.overall_hits::total              69460                       # number of overall hits
system.l2cache.demand_misses::.cpu.inst           831                       # number of demand (read+write) misses
system.l2cache.demand_misses::.cpu.data        180838                       # number of demand (read+write) misses
system.l2cache.demand_misses::total            181669                       # number of demand (read+write) misses
system.l2cache.overall_misses::.cpu.inst          831                       # number of overall misses
system.l2cache.overall_misses::.cpu.data       180838                       # number of overall misses
system.l2cache.overall_misses::total           181669                       # number of overall misses
system.l2cache.demand_miss_latency::.cpu.inst     82556000                       # number of demand (read+write) miss cycles
system.l2cache.demand_miss_latency::.cpu.data  18434690000                       # number of demand (read+write) miss cycles
system.l2cache.demand_miss_latency::total  18517246000                       # number of demand (read+write) miss cycles
system.l2cache.overall_miss_latency::.cpu.inst     82556000                       # number of overall miss cycles
system.l2cache.overall_miss_latency::.cpu.data  18434690000                       # number of overall miss cycles
system.l2cache.overall_miss_latency::total  18517246000                       # number of overall miss cycles
system.l2cache.demand_accesses::.cpu.inst          994                       # number of demand (read+write) accesses
system.l2cache.demand_accesses::.cpu.data       250135                       # number of demand (read+write) accesses
system.l2cache.demand_accesses::total          251129                       # number of demand (read+write) accesses
system.l2cache.overall_accesses::.cpu.inst          994                       # number of overall (read+write) accesses
system.l2cache.overall_accesses::.cpu.data       250135                       # number of overall (read+write) accesses
system.l2cache.overall_accesses::total         251129                       # number of overall (read+write) accesses
system.l2cache.demand_miss_rate::.cpu.inst     0.836016                       # miss rate for demand accesses
system.l2cache.demand_miss_rate::.cpu.data     0.722962                       # miss rate for demand accesses
system.l2cache.demand_miss_rate::total       0.723409                       # miss rate for demand accesses
system.l2cache.overall_miss_rate::.cpu.inst     0.836016                       # miss rate for overall accesses
system.l2cache.overall_miss_rate::.cpu.data     0.722962                       # miss rate for overall accesses
system.l2cache.overall_miss_rate::total      0.723409                       # miss rate for overall accesses
system.l2cache.demand_avg_miss_latency::.cpu.inst 99345.367028                       # average overall miss latency
system.l2cache.demand_avg_miss_latency::.cpu.data 101940.355456                       # average overall miss latency
system.l2cache.demand_avg_miss_latency::total 101928.485322                       # average overall miss latency
system.l2cache.overall_avg_miss_latency::.cpu.inst 99345.367028                       # average overall miss latency
system.l2cache.overall_avg_miss_latency::.cpu.data 101940.355456                       # average overall miss latency
system.l2cache.overall_avg_miss_latency::total 101928.485322                       # average overall miss latency
system.l2cache.blocked_cycles::no_mshrs             0                       # number of cycles access was blocked
system.l2cache.blocked_cycles::no_targets            0                       # number of cycles access was blocked
system.l2cache.blocked::no_mshrs                    0                       # number of cycles access was blocked
system.l2cache.blocked::no_targets                  0                       # number of cycles access was blocked
system.l2cache.avg_blocked_cycles::no_mshrs          nan                       # average number of cycles each access was blocked
system.l2cache.avg_blocked_cycles::no_targets          nan                       # average number of cycles each access was blocked
system.l2cache.writebacks::.writebacks          59272                       # number of writebacks
system.l2cache.writebacks::total                59272                       # number of writebacks
system.l2cache.demand_mshr_misses::.cpu.inst          831                       # number of demand (read+write) MSHR misses
system.l2cache.demand_mshr_misses::.cpu.data       180838                       # number of demand (read+write) MSHR misses
system.l2cache.demand_mshr_misses::total       181669                       # number of demand (read+write) MSHR misses
system.l2cache.overall_mshr_misses::.cpu.inst          831                       # number of overall MSHR misses
system.l2cache.overall_mshr_misses::.cpu.data       180838                       # number of overall MSHR misses
system.l2cache.overall_mshr_misses::total       181669                       # number of overall MSHR misses
system.l2cache.demand_mshr_miss_latency::.cpu.inst     65936000                       # number of demand (read+write) MSHR miss cycles
system.l2cache.demand_mshr_miss_latency::.cpu.data  14817930000                       # number of demand (read+write) MSHR miss cycles
system.l2cache.demand_mshr_miss_latency::total  14883866000                       # number of demand (read+write) MSHR miss cycles
system.l2cache.overall_mshr_miss_latency::.cpu.inst     65936000                       # number of overall MSHR miss cycles
system.l2cache.overall_mshr_miss_latency::.cpu.data  14817930000                       # number of overall MSHR miss cycles
system.l2cache.overall_mshr_miss_latency::total  14883866000                       # number of overall MSHR miss cycles
system.l2cache.demand_mshr_miss_rate::.cpu.inst     0.836016                       # mshr miss rate for demand accesses
system.l2cache.demand_mshr_miss_rate::.cpu.data     0.722962                       # mshr miss rate for demand accesses
system.l2cache.demand_mshr_miss_rate::total     0.723409                       # mshr miss rate for demand accesses
system.l2cache.overall_mshr_miss_rate::.cpu.inst     0.836016                       # mshr miss rate for overall accesses
system.l2cache.overall_mshr_miss_rate::.cpu.data     0.722962                       # mshr miss rate for overall accesses
system.l2cache.overall_mshr_miss_rate::total     0.723409                       # mshr miss rate for overall accesses
system.l2cache.demand_avg_mshr_miss_latency::.cpu.inst 79345.367028                       # average overall mshr miss latency
system.l2cache.demand_avg_mshr_miss_latency::.cpu.data 81940.355456                       # average overall mshr miss latency
system.l2cache.demand_avg_mshr_miss_latency::total 81928.485322                       # average overall mshr miss latency
system.l2cache.overall_avg_mshr_miss_latency::.cpu.inst 79345.367028                       # average overall mshr miss latency
system.l2cache.overall_avg_mshr_miss_latency::.cpu.data 81940.355456                       # average overall mshr miss latency
system.l2cache.overall_avg_mshr_miss_latency::total 81928.485322                       # average overall mshr miss latency
system.l2cache.replacements                    176969                       # number of replacements
system.l2cache.WritebackDirty_hits::.writebacks       126232                       # number of WritebackDirty hits
system.l2cache.WritebackDirty_hits::total       126232                       # number of WritebackDirty hits
system.l2cache.WritebackDirty_misses::.writebacks           11                       # number of WritebackDirty misses
system.l2cache.WritebackDirty_misses::total           11                       # number of WritebackDirty misses
system.l2cache.WritebackDirty_accesses::.writebacks       126243                       # number of WritebackDirty accesses(hits+misses)
system.l2cache.WritebackDirty_accesses::total       126243                       # number of WritebackDirty accesses(hits+misses)
system.l2cache.WritebackDirty_miss_rate::.writebacks     0.000087                       # miss rate for WritebackDirty accesses
system.l2cache.WritebackDirty_miss_rate::total     0.000087                       # miss rate for WritebackDirty accesses
system.l2cache.WritebackDirty_mshr_misses::.writebacks           11                       # number of WritebackDirty MSHR misses
system.l2cache.WritebackDirty_mshr_misses::total           11                       # number of WritebackDirty MSHR misses
system.l2cache.WritebackDirty_mshr_miss_rate::.writebacks     0.000087                       # mshr miss rate for WritebackDirty accesses
system.l2cache.WritebackDirty_mshr_miss_rate::total     0.000087                       # mshr miss rate for WritebackDirty accesses
system.l2cache.CleanEvict_mshr_misses::.writebacks         1460                       # number of CleanEvict MSHR misses
system.l2cache.CleanEvict_mshr_misses::total         1460                       # number of CleanEvict MSHR misses
system.l2cache.CleanEvict_mshr_miss_rate::.writebacks          inf                       # mshr miss rate for CleanEvict accesses
system.l2cache.CleanEvict_mshr_miss_rate::total          inf                       # mshr miss rate for CleanEvict accesses
system.l2cache.ReadExReq_hits::.cpu.data        45038                       # number of ReadExReq hits
system.l2cache.ReadExReq_hits::total            45038                       # number of ReadExReq hits
system.l2cache.ReadExReq_misses::.cpu.data        58921                       # number of ReadExReq misses
system.l2cache.ReadExReq_misses::total          58921                       # number of ReadExReq misses
system.l2cache.ReadExReq_miss_latency::.cpu.data   6408554000                       # number of ReadExReq miss cycles
system.l2cache.ReadExReq_miss_latency::total   6408554000                       # number of ReadExReq miss cycles
system.l2cache.ReadExReq_accesses::.cpu.data       103959                       # number of ReadExReq accesses(hits+misses)
system.l2cache.ReadExReq_accesses::total       103959                       # number of ReadExReq accesses(hits+misses)
system.l2cache.ReadExReq_miss_rate::.cpu.data     0.566772                       # miss rate for ReadExReq accesses
system.l2cache.ReadExReq_miss_rate::total     0.566772                       # miss rate for ReadExReq accesses
system.l2cache.ReadExReq_avg_miss_latency::.cpu.data 108765.194073                       # average ReadExReq miss latency
system.l2cache.ReadExReq_avg_miss_latency::total 108765.194073                       # average ReadExReq miss latency
system.l2cache.ReadExReq_mshr_misses::.cpu.data        58921                       # number of ReadExReq MSHR misses
system.l2cache.ReadExReq_mshr_misses::total        58921                       # number of ReadExReq MSHR misses
system.l2cache.ReadExReq_mshr_miss_latency::.cpu.data   5230134000                       # number of ReadExReq MSHR miss cycles
system.l2cache.ReadExReq_mshr_miss_latency::total   5230134000                       # number of ReadExReq MSHR miss cycles
system.l2cache.ReadExReq_mshr_miss_rate::.cpu.data     0.566772                       # mshr miss rate for ReadExReq accesses
system.l2cache.ReadExReq_mshr_miss_rate::total     0.566772                       # mshr miss rate for ReadExReq accesses
system.l2cache.ReadExReq_avg_mshr_miss_latency::.cpu.data 88765.194073                       # average ReadExReq mshr miss latency
system.l2cache.ReadExReq_avg_mshr_miss_latency::total 88765.194073                       # average ReadExReq mshr miss latency
system.l2cache.ReadSharedReq_hits::.cpu.inst          163                       # number of ReadSharedReq hits
system.l2cache.ReadSharedReq_hits::.cpu.data        24259                       # number of ReadSharedReq hits
system.l2cache.ReadSharedReq_hits::total        24422                       # number of ReadSharedReq hits
system.l2cache.ReadSharedReq_misses::.cpu.inst          831                       # number of ReadSharedReq misses
system.l2cache.ReadSharedReq_misses::.cpu.data       121917                       # number of ReadSharedReq misses
system.l2cache.ReadSharedReq_misses::total       122748                       # number of ReadSharedReq misses
system.l2cache.ReadSharedReq_miss_latency::.cpu.inst     82556000                       # number of ReadSharedReq miss cycles
system.l2cache.ReadSharedReq_miss_latency::.cpu.data  12026136000                       # number of ReadSharedReq miss cycles
system.l2cache.ReadSharedReq_miss_latency::total  12108692000                       # number of ReadSharedReq miss cycles
system.l2cache.ReadSharedReq_accesses::.cpu.inst          994                       # number of ReadSharedReq accesses(hits+misses)
system.l2cache.ReadSharedReq_accesses::.cpu.data       146176                       # number of ReadSharedReq accesses(hits+misses)
system.l2cache.ReadSharedReq_accesses::total       147170                       # number of ReadSharedReq accesses(hits+misses)
system.l2cache.ReadSharedReq_miss_rate::.cpu.inst     0.836016                       # miss rate for ReadSharedReq accesses
system.l2cache.ReadSharedReq_miss_rate::.cpu.data     0.834043                       # miss rate for ReadSharedReq accesses
system.l2cache.ReadSharedReq_miss_rate::total     0.834056                       # miss rate for ReadSharedReq accesses
system.l2cache.ReadSharedReq_avg_miss_latency::.cpu.inst 99345.367028                       # average ReadSharedReq miss latency
system.l2cache.ReadSharedReq_avg_miss_latency::.cpu.data 98641.994144                       # average ReadSharedReq miss latency
system.l2cache.ReadSharedReq_avg_miss_latency::total 98646.755955                       # average ReadSharedReq miss latency
system.l2cache.ReadSharedReq_mshr_misses::.cpu.inst          831                       # number of ReadSharedReq MSHR misses
system.l2cache.ReadSharedReq_mshr_misses::.cpu.data       121917                       # number of ReadSharedReq MSHR misses
system.l2cache.ReadSharedReq_mshr_misses::total       122748                       # number of ReadSharedReq MSHR misses
system.l2cache.ReadSharedReq_mshr_miss_latency::.cpu.inst     65936000                       # number of ReadSharedReq MSHR miss cycles
system.l2cache.ReadSharedReq_mshr_miss_latency::.cpu.data   9587796000                       # number of ReadSharedReq MSHR miss cycles
system.l2cache.ReadSharedReq_mshr_miss_latency::total   9653732000                       # number of ReadSharedReq MSHR miss cycles
system.l2cache.ReadSharedReq_mshr_miss_rate::.cpu.inst     0.836016                       # mshr miss rate for ReadSharedReq accesses
system.l2cache.ReadSharedReq_mshr_miss_rate::.cpu.data     0.834043                       # mshr miss rate for ReadSharedReq accesses
system.l2cache.ReadSharedReq_mshr_miss_rate::total     0.834056                       # mshr miss rate for ReadSharedReq accesses
system.l2cache.ReadSharedReq_avg_mshr_miss_latency::.cpu.inst 79345.367028                       # average ReadSharedReq mshr miss latency
system.l2cache.ReadSharedReq_avg_mshr_miss_latency::.cpu.data 78641.994144                       # average ReadSharedReq mshr miss latency
system.l2cache.ReadSharedReq_avg_mshr_miss_latency::total 78646.755955                       # average ReadSharedReq mshr miss latency
system.l2cache.power_state.pwrStateResidencyTicks::UNDEFINED 128198822000                       # Cumulative time (in ticks) in various power states
system.l2cache.replacement_policy.totalBypasses         1929                       # Total number of cache bypasses
system.l2cache.replacement_policy.effectiveBypasses          105                       # Bypasses that correctly skipped non-reused blocks
system.l2cache.replacement_policy.ineffectiveBypasses          187                       # Bypasses that incorrectly skipped requested blocks
system.l2cache.replacement_policy.virtualEffectiveBypasses          905                       # Virtual bypasses correctly predicting non-reused blocks
system.l2cache.replacement_policy.virtualIneffectiveBypasses         7142                       # Virtual bypasses incorrectly predicting requested blocks
system.l2cache.tags.tagsinuse             3560.791601                       # Cycle average of tags in use
system.l2cache.tags.total_refs                 497590                       # Total number of references to valid blocks.
system.l2cache.tags.sampled_refs               181065                       # Sample count of references to valid blocks.
system.l2cache.tags.avg_refs                 2.748129                       # Average number of references to valid blocks.
system.l2cache.tags.warmup_cycle             15120000                       # Cycle when the warmup percentage was hit.
system.l2cache.tags.occ_blocks::.writebacks    27.077382                       # Average occupied blocks per requestor
system.l2cache.tags.occ_blocks::.cpu.inst   145.399637                       # Average occupied blocks per requestor
system.l2cache.tags.occ_blocks::.cpu.data  3388.314582                       # Average occupied blocks per requestor
system.l2cache.tags.occ_percent::.writebacks     0.006611                       # Average percentage of cache occupancy
system.l2cache.tags.occ_percent::.cpu.inst     0.035498                       # Average percentage of cache occupancy
system.l2cache.tags.occ_percent::.cpu.data     0.827225                       # Average percentage of cache occupancy
system.l2cache.tags.occ_percent::total       0.869334                       # Average percentage of cache occupancy
system.l2cache.tags.occ_task_id_blocks::1024         4096                       # Occupied blocks per task id
system.l2cache.tags.age_task_id_blocks_1024::0           75                       # Occupied blocks per task id
system.l2cache.tags.age_task_id_blocks_1024::1          215                       # Occupied blocks per task id
system.l2cache.tags.age_task_id_blocks_1024::2         3426                       # Occupied blocks per task id
system.l2cache.tags.age_task_id_blocks_1024::3          380                       # Occupied blocks per task id
system.l2cache.tags.occ_task_id_percent::1024            1                       # Percentage of cache occupancy per task id
system.l2cache.tags.tag_accesses              4188897                       # Number of tag accesses
system.l2cache.tags.data_accesses             4188897                       # Number of data accesses
system.l2cache.tags.power_state.pwrStateResidencyTicks::UNDEFINED 128198822000                       # Cumulative time (in ticks) in various power states
system.mem_ctrl.avgPriority_.writebacks::samples     59283.00                       # Average QoS priority value for accepted requests
system.mem_ctrl.avgPriority_.cpu.inst::samples       831.00                       # Average QoS priority value for accepted requests
system.mem_ctrl.avgPriority_.cpu.data::samples    180274.00                       # Average QoS priority value for accepted requests
system.mem_ctrl.priorityMinLatency       0.000000018750                       # per QoS priority minimum request to response latency (s)
system.mem_ctrl.priorityMaxLatency       0.076164104500                       # per QoS priority maximum request to response latency (s)
system.mem_ctrl.numReadWriteTurnArounds          3316                       # Number of turnarounds from READ to WRITE
system.mem_ctrl.numWriteReadTurnArounds          3316                       # Number of turnarounds from WRITE to READ
system.mem_ctrl.numStayReadState               454046                       # Number of times bus staying in READ state
system.mem_ctrl.numStayWriteState               55992                       # Number of times bus staying in WRITE state
system.mem_ctrl.readReqs                       181669                       # Number of read requests accepted
system.mem_ctrl.writeReqs                       59283                       # Number of write requests accepted
system.mem_ctrl.readBursts                     181669                       # Number of controller read bursts, including those serviced by the write queue
system.mem_ctrl.writeBursts                     59283                       # Number of controller write bursts, including those merged in the write queue
system.mem_ctrl.servicedByWrQ                     564                       # Number of controller read bursts serviced by the write queue
system.mem_ctrl.mergedWrBursts                      0                       # Number of controller write bursts merged with an existing one
system.mem_ctrl.neitherReadNorWriteReqs             0                       # Number of requests that are neither read nor write
system.mem_ctrl.avgRdQLen                        1.00                       # Average read queue length when enqueuing
system.mem_ctrl.avgWrQLen                       17.27                       # Average write queue length when enqueuing
system.mem_ctrl.numRdRetry                          0                       # Number of times read queue was full causing retry
system.mem_ctrl.numWrRetry                          0                       # Number of times write queue was full causing retry
system.mem_ctrl.readPktSize::0                      0                       # Read request sizes (log2)
system.mem_ctrl.readPktSize::1                      0                       # Read request sizes (log2)
system.mem_ctrl.readPktSize::2                      0                       # Read request sizes (log2)
system.mem_ctrl.readPktSize::3                      0                       # Read request sizes (log2)
system.mem_ctrl.readPktSize::4                      0                       # Read request sizes (log2)
system.mem_ctrl.readPktSize::5                      0                       # Read request sizes (log2)
system.mem_ctrl.readPktSize::6                 181669                       # Read request sizes (log2)
system.mem_ctrl.writePktSize::0                     0                       # Write request sizes (log2)
system.mem_ctrl.writePktSize::1                     0                       # Write request sizes (log2)
system.mem_ctrl.writePktSize::2                     0                       # Write request sizes (log2)
system.mem_ctrl.writePktSize::3                     0                       # Write request sizes (log2)
system.mem_ctrl.writePktSize::4                     0                       # Write request sizes (log2)
system.mem_ctrl.writePktSize::5                     0                       # Write request sizes (log2)
system.mem_ctrl.writePktSize::6                 59283                       # Write request sizes (log2)
system.mem_ctrl.rdQLenPdf::0                   181104                       # What read queue length does an incoming req see
system.mem_ctrl.rdQLenPdf::1                        1                       # What read queue length does an incoming req see
system.mem_ctrl.rdQLenPdf::2                        0                       # What read queue length does an incoming req see
system.mem_ctrl.rdQLenPdf::3                        0                       # What read queue length does an incoming req see
system.mem_ctrl.rdQLenPdf::4                        0                       # What read queue length does an incoming req see
system.mem_ctrl.rdQLenPdf::5                        0                       # What read queue length does an incoming req see
system.mem_ctrl.rdQLenPdf::6                        0                       # What read queue length does an incoming req see
system.mem_ctrl.rdQLenPdf::7                        0                       # What read queue length does an incoming req see
system.mem_ctrl.rdQLenPdf::8                        0                       # What read queue length does an incoming req see
system.mem_ctrl.rdQLenPdf::9                        0                       # What read queue length does an incoming req see
system.mem_ctrl.rdQLenPdf::10                       0                       # What read queue length does an incoming req see
system.mem_ctrl.rdQLenPdf::11                       0                       # What read queue length does an incoming req see
system.mem_ctrl.rdQLenPdf::12                       0                       # What read queue length does an incoming req see
system.mem_ctrl.rdQLenPdf::13                       0                       # What read queue length does an incoming req see
system.mem_ctrl.rdQLenPdf::14                       0                       # What read queue length does an incoming req see
system.mem_ctrl.rdQLenPdf::15                       0                       # What read queue length does an incoming req see
system.mem_ctrl.rdQLenPdf::16                       0                       # What read queue length does an incoming req see
system.mem_ctrl.rdQLenPdf::17                       0                       # What read queue length does an incoming req see
system.mem_ctrl.rdQLenPdf::18                       0                       # What read queue length does an incoming req see
system.mem_ctrl.rdQLenPdf::19                       0                       # What read queue length does an incoming req see
system.mem_ctrl.rdQLenPdf::20                       0                       # What read queue length does an incoming req see
system.mem_ctrl.rdQLenPdf::21                       0                       # What read queue length does an incoming req see
system.mem_ctrl.rdQLenPdf::22                       0                       # What read queue length does an incoming req see
system.mem_ctrl.rdQLenPdf::23                       0                       # What read queue length does an incoming req see
system.mem_ctrl.rdQLenPdf::24                       0                       # What read queue length does an incoming req see
system.mem_ctrl.rdQLenPdf::25                       0                       # What read queue length does an incoming req see
system.mem_ctrl.rdQLenPdf::26                       0                       # What read queue length does an incoming req see
system.mem_ctrl.rdQLenPdf::27                       0                       # What read queue length does an incoming req see
system.mem_ctrl.rdQLenPdf::28                       0                       # What read queue length does an incoming req see
system.mem_ctrl.rdQLenPdf::29                       0                       # What read queue length does an incoming req see
system.mem_ctrl.rdQLenPdf::30                       0                       # What read queue length does an incoming req see
system.mem_ctrl.rdQLenPdf::31                       0                       # What read queue length does an incoming req see
system.mem_ctrl.wrQLenPdf::0                        1                       # What write queue length does an incoming req see
system.mem_ctrl.wrQLenPdf::1                        1                       # What write queue length does an incoming req see
system.mem_ctrl.wrQLenPdf::2                        1                       # What write queue length does an incoming req see
system.mem_ctrl.wrQLenPdf::3                        1                       # What write queue length does an incoming req see
system.mem_ctrl.wrQLenPdf::4                        1                       # What write queue length does an incoming req see
system.mem_ctrl.wrQLenPdf::5                        1                       # What write queue length does an incoming req see
system.mem_ctrl.wrQLenPdf::6                        1                       # What write queue length does an incoming req see
system.mem_ctrl.wrQLenPdf::7                        1                       # What write queue length does an incoming req see
system.mem_ctrl.wrQLenPdf::8                        1                       # What write queue length does an incoming req see
system.mem_ctrl.wrQLenPdf::9                        1                       # What write queue length does an incoming req see
system.mem_ctrl.wrQLenPdf::10                       1                       # What write queue length does an incoming req see
system.mem_ctrl.wrQLenPdf::11                       1                       # What write queue length does an incoming req see
system.mem_ctrl.wrQLenPdf::12                       1                       # What write queue length does an incoming req see
system.mem_ctrl.wrQLenPdf::13                       1                       # What write queue length does an incoming req see
system.mem_ctrl.wrQLenPdf::14                       1                       # What write queue length does an incoming req see
system.mem_ctrl.wrQLenPdf::15                    3092                       # What write queue length does an incoming req see
system.mem_ctrl.wrQLenPdf::16                    3111                       # What write queue length does an incoming req see
system.mem_ctrl.wrQLenPdf::17                    3316                       # What write queue length does an incoming req see
system.mem_ctrl.wrQLenPdf::18                    3317                       # What write queue length does an incoming req see
system.mem_ctrl.wrQLenPdf::19                    3317                       # What write queue length does an incoming req see
system.mem_ctrl.wrQLenPdf::20                    3319                       # What write queue length does an incoming req see
system.mem_ctrl.wrQLenPdf::21                    3320                       # What write queue length does an incoming req see
system.mem_ctrl.wrQLenPdf::22                    3316                       # What write queue length does an incoming req see
system.mem_ctrl.wrQLenPdf::23                    3316                       # What write queue length does an incoming req see
system.mem_ctrl.wrQLenPdf::24                    3316                       # What write queue length does an incoming req see
system.mem_ctrl.wrQLenPdf::25                    3316                       # What write queue length does an incoming req see
system.mem_ctrl.wrQLenPdf::26                    3316                       # What write queue length does an incoming req see
system.mem_ctrl.wrQLenPdf::27                    3316                       # What write queue length does an incoming req see
system.mem_ctrl.wrQLenPdf::28                    3316                       # What write queue length does an incoming req see
system.mem_ctrl.wrQLenPdf::29                    3316                       # What write queue length does an incoming req see
system.mem_ctrl.wrQLenPdf::30                    3316                       # What write queue length does an incoming req see
system.mem_ctrl.wrQLenPdf::31                    3316                       # What write queue length does an incoming req see
system.mem_ctrl.wrQLenPdf::32                    3316                       # What write queue length does an incoming req see
system.mem_ctrl.wrQLenPdf::33                       0                       # What write queue length does an incoming req see
system.mem_ctrl.wrQLenPdf::34                       0                       # What write queue length does an incoming req see
system.mem_ctrl.wrQLenPdf::35                       0                       # What write queue length does an incoming req see
system.mem_ctrl.wrQLenPdf::36                       0                       # What write queue length does an incoming req see
system.mem_ctrl.wrQLenPdf::37                       0                       # What write queue length does an incoming req see
system.mem_ctrl.wrQLenPdf::38                       0                       # What write queue length does an incoming req see
system.mem_ctrl.wrQLenPdf::39                       0                       # What write queue length does an incoming req see
system.mem_ctrl.wrQLenPdf::40                       0                       # What write queue length does an incoming req see
system.mem_ctrl.wrQLenPdf::41                       0                       # What write queue length does an incoming req see
system.mem_ctrl.wrQLenPdf::42                       0                       # What write queue length does an incoming req see
system.mem_ctrl.wrQLenPdf::43                       0                       # What write queue length does an incoming req see
system.mem_ctrl.wrQLenPdf::44                       0                       # What write queue length does an incoming req see
system.mem_ctrl.wrQLenPdf::45                       0                       # What write queue length does an incoming req see
system.mem_ctrl.wrQLenPdf::46                       0                       # What write queue length does an incoming req see
system.mem_ctrl.wrQLenPdf::47                       0                       # What write queue length does an incoming req see
system.mem_ctrl.wrQLenPdf::48                       0                       # What write queue length does an incoming req see
system.mem_ctrl.wrQLenPdf::49                       0                       # What write queue length does an incoming req see
system.mem_ctrl.wrQLenPdf::50                       0                       # What write queue length does an incoming req see
system.mem_ctrl.wrQLenPdf::51                       0                       # What write queue length does an incoming req see
system.mem_ctrl.wrQLenPdf::52                       0                       # What write queue length does an incoming req see
system.mem_ctrl.wrQLenPdf::53                       0                       # What write queue length does an incoming req see
system.mem_ctrl.wrQLenPdf::54                       0                       # What write queue length does an incoming req see
system.mem_ctrl.wrQLenPdf::55                       0                       # What write queue length does an incoming req see
system.mem_ctrl.wrQLenPdf::56                       0                       # What write queue length does an incoming req see
system.mem_ctrl.wrQLenPdf::57                       0                       # What write queue length does an incoming req see
system.mem_ctrl.wrQLenPdf::58                       0                       # What write queue length does an incoming req see
system.mem_ctrl.wrQLenPdf::59                       0                       # What write queue length does an incoming req see
system.mem_ctrl.wrQLenPdf::60                       0                       # What write queue length does an incoming req see
system.mem_ctrl.wrQLenPdf::61                       0                       # What write queue length does an incoming req see
system.mem_ctrl.wrQLenPdf::62                       0                       # What write queue length does an incoming req see
system.mem_ctrl.wrQLenPdf::63                       0                       # What write queue length does an incoming req see
system.mem_ctrl.rdPerTurnAround::samples         3316                       # Reads before turning the bus around for writes
system.mem_ctrl.rdPerTurnAround::mean       54.496080                       # Reads before turning the bus around for writes
system.mem_ctrl.rdPerTurnAround::gmean      40.648080                       # Reads before turning the bus around for writes
system.mem_ctrl.rdPerTurnAround::stdev     145.761233                       # Reads before turning the bus around for writes
system.mem_ctrl.rdPerTurnAround::0-255           3283     99.00%     99.00% # Reads before turning the bus around for writes
system.mem_ctrl.rdPerTurnAround::256-511           13      0.39%     99.40% # Reads before turning the bus around for writes
system.mem_ctrl.rdPerTurnAround::512-767            7      0.21%     99.61% # Reads before turning the bus around for writes
system.mem_ctrl.rdPerTurnAround::768-1023            1      0.03%     99.64% # Reads before turning the bus around for writes
system.mem_ctrl.rdPerTurnAround::1024-1279            1      0.03%     99.67% # Reads before turning the bus around for writes
system.mem_ctrl.rdPerTurnAround::1280-1535            1      0.03%     99.70% # Reads before turning the bus around for writes
system.mem_ctrl.rdPerTurnAround::1792-2047            1      0.03%     99.73% # Reads before turning the bus around for writes
system.mem_ctrl.rdPerTurnAround::2048-2303            7      0.21%     99.94% # Reads before turning the bus around for writes
system.mem_ctrl.rdPerTurnAround::2304-2559            1      0.03%     99.97% # Reads before turning the bus around for writes
system.mem_ctrl.rdPerTurnAround::4352-4607            1      0.03%    100.00% # Reads before turning the bus around for writes
system.mem_ctrl.rdPerTurnAround::total           3316                       # Reads before turning the bus around for writes
system.mem_ctrl.wrPerTurnAround::samples         3316                       # Writes before turning the bus around for reads
system.mem_ctrl.wrPerTurnAround::mean       17.871230                       # Writes before turning the bus around for reads
system.mem_ctrl.wrPerTurnAround::gmean      17.864053                       # Writes before turning the bus around for reads
system.mem_ctrl.wrPerTurnAround::stdev       0.490026                       # Writes before turning the bus around for reads
system.mem_ctrl.wrPerTurnAround::16               207      6.24%      6.24% # Writes before turning the bus around for reads
system.mem_ctrl.wrPerTurnAround::17                18      0.54%      6.79% # Writes before turning the bus around for reads
system.mem_ctrl.wrPerTurnAround::18              3086     93.06%     99.85% # Writes before turning the bus around for reads
system.mem_ctrl.wrPerTurnAround::19                 5      0.15%    100.00% # Writes before turning the bus around for reads
system.mem_ctrl.wrPerTurnAround::total           3316                       # Writes before turning the bus around for reads
system.mem_ctrl.bytesReadWrQ                    36096                       # Total number of bytes read from write queue
system.mem_ctrl.bytesReadSys                 11626816                       # Total read bytes from the system interface side
system.mem_ctrl.bytesWrittenSys               3794112                       # Total written bytes from the system interface side
[...]
system.mem_ctrl.requestorReadRate::.cpu.data 89997207.618647232652                       # Per-requestor bytes read from memory rate (Bytes/sec)
system.mem_ctrl.requestorWriteRate::.writebacks 29584546.416502956301                       # Per-requestor bytes write to memory rate (Bytes/sec)
system.mem_ctrl.requestorReadAccesses::.cpu.inst          831                       # Per-requestor read serviced memory accesses
system.mem_ctrl.requestorReadAccesses::.cpu.data       180838                       # Per-requestor read serviced memory accesses
system.mem_ctrl.requestorWriteAccesses::.writebacks        59283                       # Per-requestor write serviced memory accesses
system.mem_ctrl.requestorReadTotalLat::.cpu.inst     23280000                       # Per-requestor read total memory access latency
system.mem_ctrl.requestorReadTotalLat::.cpu.data   5535674750                       # Per-requestor read total memory access latency
system.mem_ctrl.requestorWriteTotalLat::.writebacks 2130673023000                       # Per-requestor write total memory access latency
system.mem_ctrl.requestorReadAvgLat::.cpu.inst     28014.44                       # Per-requestor read average memory access latency
system.mem_ctrl.requestorReadAvgLat::.cpu.data     30611.24                       # Per-requestor read average memory access latency
system.mem_ctrl.requestorWriteAvgLat::.writebacks  35940708.52                       # Per-requestor write average memory access latency
system.mem_ctrl.dram.bytes_read::.cpu.inst        53184                       # Number of bytes read from this memory
system.mem_ctrl.dram.bytes_read::.cpu.data     11573632                       # Number of bytes read from this memory
system.mem_ctrl.dram.bytes_read::total       11626816                       # Number of bytes read from this memory
system.mem_ctrl.dram.bytes_inst_read::.cpu.inst        53184                       # Number of instructions bytes read from this memory
system.mem_ctrl.dram.bytes_inst_read::total        53184                       # Number of instructions bytes read from this memory
system.mem_ctrl.dram.bytes_written::.writebacks      3794112                       # Number of bytes written to this memory
system.mem_ctrl.dram.bytes_written::total      3794112                       # Number of bytes written to this memory
system.mem_ctrl.dram.num_reads::.cpu.inst          831                       # Number of read requests responded to by this memory
system.mem_ctrl.dram.num_reads::.cpu.data       180838                       # Number of read requests responded to by this memory
system.mem_ctrl.dram.num_reads::total          181669                       # Number of read requests responded to by this memory
system.mem_ctrl.dram.num_writes::.writebacks        59283                       # Number of write requests responded to by this memory
system.mem_ctrl.dram.num_writes::total          59283                       # Number of write requests responded to by this memory
system.mem_ctrl.dram.bw_read::.cpu.inst        414856                       # Total read bandwidth from this memory (bytes/s)
system.mem_ctrl.dram.bw_read::.cpu.data      90278770                       # Total read bandwidth from this memory (bytes/s)
system.mem_ctrl.dram.bw_read::total          90693626                       # Total read bandwidth from this memory (bytes/s)
system.mem_ctrl.dram.bw_inst_read::.cpu.inst       414856                       # Instruction read bandwidth from this memory (bytes/s)
system.mem_ctrl.dram.bw_inst_read::total       414856                       # Instruction read bandwidth from this memory (bytes/s)
system.mem_ctrl.dram.bw_write::.writebacks     29595529                       # Write bandwidth from this memory (bytes/s)
system.mem_ctrl.dram.bw_write::total         29595529                       # Write bandwidth from this memory (bytes/s)
system.mem_ctrl.dram.bw_total::.writebacks     29595529                       # Total bandwidth to/from this memory (bytes/s)
system.mem_ctrl.dram.bw_total::.cpu.inst       414856                       # Total bandwidth to/from this memory (bytes/s)
system.mem_ctrl.dram.bw_total::.cpu.data     90278770                       # Total bandwidth to/from this memory (bytes/s)
system.mem_ctrl.dram.bw_total::total        120289155                       # Total bandwidth to/from this memory (bytes/s)
system.mem_ctrl.dram.readBursts                181105                       # Number of DRAM read bursts
system.mem_ctrl.dram.writeBursts                59261                       # Number of DRAM write bursts
system.mem_ctrl.dram.perBankRdBursts::0         11589                       # Per bank write bursts
system.mem_ctrl.dram.perBankRdBursts::1         11486                       # Per bank write bursts
system.mem_ctrl.dram.perBankRdBursts::2         12423                       # Per bank write bursts
system.mem_ctrl.dram.perBankRdBursts::3         10853                       # Per bank write bursts
system.mem_ctrl.dram.perBankRdBursts::4         10630                       # Per bank write bursts
system.mem_ctrl.dram.perBankRdBursts::5         11086                       # Per bank write bursts
system.mem_ctrl.dram.perBankRdBursts::6         11242                       # Per bank write bursts
system.mem_ctrl.dram.perBankRdBursts::7         10797                       # Per bank write bursts
system.mem_ctrl.dram.perBankRdBursts::8         11044                       # Per bank write bursts
system.mem_ctrl.dram.perBankRdBursts::9         11290                       # Per bank write bursts
system.mem_ctrl.dram.perBankRdBursts::10        11363                       # Per bank write bursts
system.mem_ctrl.dram.perBankRdBursts::11        11358                       # Per bank write bursts
system.mem_ctrl.dram.perBankRdBursts::12        11383                       # Per bank write bursts
system.mem_ctrl.dram.perBankRdBursts::13        11446                       # Per bank write bursts
system.mem_ctrl.dram.perBankRdBursts::14        11739                       # Per bank write bursts
system.mem_ctrl.dram.perBankRdBursts::15        11376                       # Per bank write bursts
system.mem_ctrl.dram.perBankWrBursts::0          3591                       # Per bank write bursts
system.mem_ctrl.dram.perBankWrBursts::1          4057                       # Per bank write bursts
system.mem_ctrl.dram.perBankWrBursts::2          5686                       # Per bank write bursts
system.mem_ctrl.dram.perBankWrBursts::3          4065                       # Per bank write bursts
system.mem_ctrl.dram.perBankWrBursts::4          3546                       # Per bank write bursts
system.mem_ctrl.dram.perBankWrBursts::5          3576                       # Per bank write bursts
system.mem_ctrl.dram.perBankWrBursts::6          3491                       # Per bank write bursts
system.mem_ctrl.dram.perBankWrBursts::7          3476                       # Per bank write bursts
system.mem_ctrl.dram.perBankWrBursts::8          3480                       # Per bank write bursts
system.mem_ctrl.dram.perBankWrBursts::9          3493                       # Per bank write bursts
system.mem_ctrl.dram.perBankWrBursts::10         3482                       # Per bank write bursts
system.mem_ctrl.dram.perBankWrBursts::11         3472                       # Per bank write bursts
system.mem_ctrl.dram.perBankWrBursts::12         3485                       # Per bank write bursts
system.mem_ctrl.dram.perBankWrBursts::13         3465                       # Per bank write bursts
system.mem_ctrl.dram.perBankWrBursts::14         3441                       # Per bank write bursts
system.mem_ctrl.dram.perBankWrBursts::15         3455                       # Per bank write bursts
system.mem_ctrl.dram.totQLat               2163236000                       # Total ticks spent queuing
system.mem_ctrl.dram.totBusLat              905525000                       # Total ticks spent in databus transfers
system.mem_ctrl.dram.totMemAccLat          5558954750                       # Total ticks spent from burst creation until serviced by the DRAM
system.mem_ctrl.dram.avgQLat                 11944.65                       # Average queueing delay per DRAM burst
system.mem_ctrl.dram.avgBusLat                5000.00                       # Average bus latency per DRAM burst
system.mem_ctrl.dram.avgMemAccLat            30694.65                       # Average memory access latency per DRAM burst
system.mem_ctrl.dram.readRowHits               114589                       # Number of row buffer hits during reads
system.mem_ctrl.dram.writeRowHits               43441                       # Number of row buffer hits during writes
system.mem_ctrl.dram.readRowHitRate             63.27                       # Row buffer hit rate for reads
system.mem_ctrl.dram.writeRowHitRate            73.30                       # Row buffer hit rate for writes
system.mem_ctrl.dram.bytesPerActivate::samples        82329                       # Bytes accessed per row activation
system.mem_ctrl.dram.bytesPerActivate::mean   186.830497                       # Bytes accessed per row activation
system.mem_ctrl.dram.bytesPerActivate::gmean   115.160708                       # Bytes accessed per row activation
system.mem_ctrl.dram.bytesPerActivate::stdev   239.961580                       # Bytes accessed per row activation
system.mem_ctrl.dram.bytesPerActivate::0-127        49492     60.11%     60.11% # Bytes accessed per row activation
system.mem_ctrl.dram.bytesPerActivate::128-255        15885     19.29%     79.41% # Bytes accessed per row activation
system.mem_ctrl.dram.bytesPerActivate::256-383         4758      5.78%     85.19% # Bytes accessed per row activation
system.mem_ctrl.dram.bytesPerActivate::384-511         2864      3.48%     88.67% # Bytes accessed per row activation
system.mem_ctrl.dram.bytesPerActivate::512-639         2538      3.08%     91.75% # Bytes accessed per row activation
system.mem_ctrl.dram.bytesPerActivate::640-767         1870      2.27%     94.02% # Bytes accessed per row activation
system.mem_ctrl.dram.bytesPerActivate::768-895          887      1.08%     95.10% # Bytes accessed per row activation
system.mem_ctrl.dram.bytesPerActivate::896-1023          993      1.21%     96.31% # Bytes accessed per row activation
system.mem_ctrl.dram.bytesPerActivate::1024-1151         3042      3.69%    100.00% # Bytes accessed per row activation
system.mem_ctrl.dram.bytesPerActivate::total        82329                       # Bytes accessed per row activation
system.mem_ctrl.dram.bytesRead               11590720                       # Total number of bytes read from DRAM
system.mem_ctrl.dram.bytesWritten             3792704                       # Total number of bytes written to DRAM
system.mem_ctrl.dram.avgRdBW                90.412063                       # Average DRAM read bandwidth in MiBytes/s
system.mem_ctrl.dram.avgWrBW                29.584546                       # Average DRAM write bandwidth in MiBytes/s
system.mem_ctrl.dram.peakBW                  12800.00                       # Theoretical peak bandwidth in MiByte/s
system.mem_ctrl.dram.busUtil                     0.94                       # Data bus utilization in percentage
system.mem_ctrl.dram.busUtilRead                 0.71                       # Data bus utilization in percentage for reads
system.mem_ctrl.dram.busUtilWrite                0.23                       # Data bus utilization in percentage for writes
system.mem_ctrl.dram.pageHitRate                65.75                       # Row buffer hit rate, read and write combined
system.mem_ctrl.dram.power_state.pwrStateResidencyTicks::UNDEFINED 128198822000                       # Cumulative time (in ticks) in various power states
system.mem_ctrl.dram.rank0.actEnergy        297288180                       # Energy for activate commands per rank (pJ)
system.mem_ctrl.dram.rank0.preEnergy        158001030                       # Energy for precharge commands per rank (pJ)
system.mem_ctrl.dram.rank0.readEnergy       643356840                       # Energy for read commands per rank (pJ)
system.mem_ctrl.dram.rank0.writeEnergy      164367360                       # Energy for write commands per rank (pJ)
system.mem_ctrl.dram.rank0.refreshEnergy 10119432960.000002                       # Energy for refresh commands per rank (pJ)
system.mem_ctrl.dram.rank0.actBackEnergy  30267226290                       # Energy for active background per rank (pJ)
system.mem_ctrl.dram.rank0.preBackEnergy  23740157280                       # Energy for precharge background per rank (pJ)
system.mem_ctrl.dram.rank0.actPowerDownEnergy            0                       # Energy for active power-down per rank (pJ)
system.mem_ctrl.dram.rank0.prePowerDownEnergy            0                       # Energy for precharge power-down per rank (pJ)
system.mem_ctrl.dram.rank0.selfRefreshEnergy            0                       # Energy for self refresh per rank (pJ)
system.mem_ctrl.dram.rank0.totalEnergy    65389829940                       # Total energy per rank (pJ)
system.mem_ctrl.dram.rank0.averagePower    510.065763                       # Core power per rank (mW)
system.mem_ctrl.dram.rank0.totalIdleTime            0                       # Total Idle time Per DRAM Rank
system.mem_ctrl.dram.rank0.pwrStateTime::IDLE  61416337000                       # Time in different power states
system.mem_ctrl.dram.rank0.pwrStateTime::REF   4280640000                       # Time in different power states
system.mem_ctrl.dram.rank0.pwrStateTime::SREF            0                       # Time in different power states
system.mem_ctrl.dram.rank0.pwrStateTime::PRE_PDN            0                       # Time in different power states
system.mem_ctrl.dram.rank0.pwrStateTime::ACT  62501845000                       # Time in different power states
system.mem_ctrl.dram.rank0.pwrStateTime::ACT_PDN            0                       # Time in different power states
system.mem_ctrl.dram.rank1.actEnergy        290590860                       # Energy for activate commands per rank (pJ)
system.mem_ctrl.dram.rank1.preEnergy        154437525                       # Energy for precharge commands per rank (pJ)
system.mem_ctrl.dram.rank1.readEnergy       649732860                       # Energy for read commands per rank (pJ)
system.mem_ctrl.dram.rank1.writeEnergy      144975060                       # Energy for write commands per rank (pJ)
system.mem_ctrl.dram.rank1.refreshEnergy 10119432960.000002                       # Energy for refresh commands per rank (pJ)
system.mem_ctrl.dram.rank1.actBackEnergy  29966892720                       # Energy for active background per rank (pJ)
system.mem_ctrl.dram.rank1.preBackEnergy  23993069760                       # Energy for precharge background per rank (pJ)
system.mem_ctrl.dram.rank1.actPowerDownEnergy            0                       # Energy for active power-down per rank (pJ)
system.mem_ctrl.dram.rank1.prePowerDownEnergy            0                       # Energy for precharge power-down per rank (pJ)
system.mem_ctrl.dram.rank1.selfRefreshEnergy            0                       # Energy for self refresh per rank (pJ)
system.mem_ctrl.dram.rank1.totalEnergy    65319131745                       # Total energy per rank (pJ)
system.mem_ctrl.dram.rank1.averagePower    509.514290                       # Core power per rank (mW)
system.mem_ctrl.dram.rank1.totalIdleTime            0                       # Total Idle time Per DRAM Rank
system.mem_ctrl.dram.rank1.pwrStateTime::IDLE  62076117250                       # Time in different power states
system.mem_ctrl.dram.rank1.pwrStateTime::REF   4280640000                       # Time in different power states
system.mem_ctrl.dram.rank1.pwrStateTime::SREF            0                       # Time in different power states
system.mem_ctrl.dram.rank1.pwrStateTime::PRE_PDN            0                       # Time in different power states
system.mem_ctrl.dram.rank1.pwrStateTime::ACT  61842064750                       # Time in different power states
system.mem_ctrl.dram.rank1.pwrStateTime::ACT_PDN            0                       # Time in different power states
system.mem_ctrl.power_state.pwrStateResidencyTicks::UNDEFINED 128198822000                       # Cumulative time (in ticks) in various power states
system.membus.trans_dist::ReadResp             122748                       # Transaction distribution
system.membus.trans_dist::WritebackDirty        59283                       # Transaction distribution
system.membus.trans_dist::CleanEvict           118204                       # Transaction distribution
system.membus.trans_dist::ReadExReq             58921                       # Transaction distribution
system.membus.trans_dist::ReadExResp            58921                       # Transaction distribution
system.membus.trans_dist::ReadSharedReq        122748                       # Transaction distribution
system.membus.pkt_count_system.l2cache.mem_side_port::system.mem_ctrl.port       540825                       # Packet count per connected requestor and responder (bytes)
system.membus.pkt_count_system.l2cache.mem_side_port::total       540825                       # Packet count per connected requestor and responder (bytes)
system.membus.pkt_count::total                 540825                       # Packet count per connected requestor and responder (bytes)
system.membus.pkt_size_system.l2cache.mem_side_port::system.mem_ctrl.port     15420928                       # Cumulative packet size per connected requestor and responder (bytes)
system.membus.pkt_size_system.l2cache.mem_side_port::total     15420928                       # Cumulative packet size per connected requestor and responder (bytes)
system.membus.pkt_size::total                15420928                       # Cumulative packet size per connected requestor and responder (bytes)
system.membus.snoops                                0                       # Total snoops (count)
system.membus.snoopTraffic                          0                       # Total snoop traffic (bytes)
system.membus.snoop_fanout::samples            181669                       # Request fanout histogram
system.membus.snoop_fanout::mean                    0                       # Request fanout histogram
system.membus.snoop_fanout::stdev                   0                       # Request fanout histogram
system.membus.snoop_fanout::underflows              0      0.00%      0.00% # Request fanout histogram
system.membus.snoop_fanout::0                  181669    100.00%    100.00% # Request fanout histogram
system.membus.snoop_fanout::1                       0      0.00%    100.00% # Request fanout histogram
system.membus.snoop_fanout::overflows               0      0.00%    100.00% # Request fanout histogram
system.membus.snoop_fanout::min_value               0                       # Request fanout histogram
system.membus.snoop_fanout::max_value               0                       # Request fanout histogram
system.membus.snoop_fanout::total              181669                       # Request fanout histogram
system.membus.power_state.pwrStateResidencyTicks::UNDEFINED 128198822000                       # Cumulative time (in ticks) in various power states
system.membus.reqLayer2.occupancy           596288000                       # Layer occupancy (ticks)
system.membus.reqLayer2.utilization               0.5                       # Layer utilization (%)
system.membus.respLayer0.occupancy          973758750                       # Layer occupancy (ticks)
system.membus.respLayer0.utilization              0.8                       # Layer utilization (%)

---------- End Simulation Statistics   ----------
