
---------- Begin Simulation Statistics ----------
final_tick                               103259811000                       # Number of ticks from beginning of simulation (restored from checkpoints and never reset)
host_inst_rate                                 391390                       # Simulator instruction rate (inst/s)
host_mem_usage                                 671052                       # Number of bytes of host memory used
host_op_rate                                   736160                       # Simulator op (including micro ops) rate (op/s)
host_seconds                                    55.47                       # Real time elapsed on the host
host_tick_rate                             1861394699                       # Simulator tick rate (ticks/s)
sim_freq                                 1000000000000                       # Frequency of simulated ticks
sim_insts                                    21712050                       # Number of instructions simulated
sim_ops                                      40838028                       # Number of ops (including micro ops) simulated
sim_seconds                                  0.103260                       # Number of seconds simulated
sim_ticks                                103259811000                       # Number of ticks simulated
system.cpu.Branches                           1689469                       # Number of branches fetched
system.cpu.committedInsts                    21712050                       # Number of instructions committed
system.cpu.committedOps                      40838028                       # Number of ops (including micro ops) committed
system.cpu.idle_fraction                     0.000000                       # Percentage of idle cycles
system.cpu.not_idle_fraction                 1.000000                       # Percentage of non-idle cycles
system.cpu.numCycles                        103259811                       # number of cpu cycles simulated
system.cpu.numWorkItemsCompleted                    0                       # number of work items this cpu completed
system.cpu.numWorkItemsStarted                      0                       # number of work items this cpu started
system.cpu.num_busy_cycles               103259810.999000                       # Number of busy cycles
system.cpu.num_cc_register_reads              9199939                       # number of times the CC registers were read
system.cpu.num_cc_register_writes             7310816                       # number of times the CC registers were written
system.cpu.num_conditional_control_insts      1625144                       # number of instructions that are conditional controls
system.cpu.num_fp_alu_accesses               28213425                       # Number of float alu accesses
system.cpu.num_fp_insts                      28213425                       # number of float instructions
system.cpu.num_fp_register_reads             42716798                       # number of times the floating registers were read
system.cpu.num_fp_register_writes            25063166                       # number of times the floating registers were written
system.cpu.num_func_calls                       38520                       # number of times a function call or return occured
system.cpu.num_idle_cycles                   0.001000                       # Number of idle cycles
system.cpu.num_int_alu_accesses              26037879                       # Number of integer alu accesses
system.cpu.num_int_insts                     26037879                       # number of integer instructions
system.cpu.num_int_register_reads            61735399                       # number of times the integer registers were read
system.cpu.num_int_register_writes           10538264                       # number of times the integer registers were written
system.cpu.num_load_insts                    11754449                       # Number of load instructions
system.cpu.num_mem_refs                      15047408                       # number of memory refs
system.cpu.num_store_insts                    3292959                       # Number of store instructions
system.cpu.num_vec_alu_accesses                     0                       # Number of vector alu accesses
system.cpu.num_vec_insts                            0                       # number of vector instructions
system.cpu.num_vec_register_reads                   0                       # number of times the vector registers were read
system.cpu.num_vec_register_writes                  0                       # number of times the vector registers were written
system.cpu.op_class::No_OpClass                 82074      0.20%      0.20% # Class of executed instruction
system.cpu.op_class::IntAlu                  13296546     32.56%     32.76% # Class of executed instruction
system.cpu.op_class::IntMult                    80138      0.20%     32.96% # Class of executed instruction
system.cpu.op_class::IntDiv                       280      0.00%     32.96% # Class of executed instruction
system.cpu.op_class::FloatAdd                  374599      0.92%     33.87% # Class of executed instruction
system.cpu.op_class::FloatCmp                       0      0.00%     33.87% # Class of executed instruction
system.cpu.op_class::FloatCvt                       0      0.00%     33.87% # Class of executed instruction
system.cpu.op_class::FloatMult                      0      0.00%     33.87% # Class of executed instruction
system.cpu.op_class::FloatMultAcc                   0      0.00%     33.87% # Class of executed instruction
system.cpu.op_class::FloatDiv                       0      0.00%     33.87% # Class of executed instruction
system.cpu.op_class::FloatMisc                      0      0.00%     33.87% # Class of executed instruction
system.cpu.op_class::FloatSqrt                      0      0.00%     33.87% # Class of executed instruction
system.cpu.op_class::SimdAdd                       24      0.00%     33.87% # Class of executed instruction
system.cpu.op_class::SimdAddAcc                     0      0.00%     33.87% # Class of executed instruction
system.cpu.op_class::SimdAlu                   398960      0.98%     34.85% # Class of executed instruction
system.cpu.op_class::SimdCmp                       24      0.00%     34.85% # Class of executed instruction
system.cpu.op_class::SimdCvt                      730      0.00%     34.85% # Class of executed instruction
system.cpu.op_class::SimdMisc                  147076      0.36%     35.21% # Class of executed instruction
system.cpu.op_class::SimdMult                       0      0.00%     35.21% # Class of executed instruction
system.cpu.op_class::SimdMultAcc                    0      0.00%     35.21% # Class of executed instruction
system.cpu.op_class::SimdShift                      0      0.00%     35.21% # Class of executed instruction
system.cpu.op_class::SimdShiftAcc                   0      0.00%     35.21% # Class of executed instruction
system.cpu.op_class::SimdDiv                        0      0.00%     35.21% # Class of executed instruction
system.cpu.op_class::SimdSqrt                       0      0.00%     35.21% # Class of executed instruction
system.cpu.op_class::SimdFloatAdd             8763369     21.46%     56.67% # Class of executed instruction
system.cpu.op_class::SimdFloatAlu                   0      0.00%     56.67% # Class of executed instruction
system.cpu.op_class::SimdFloatCmp                   0      0.00%     56.67% # Class of executed instruction
system.cpu.op_class::SimdFloatCvt              340277      0.83%     57.51% # Class of executed instruction
system.cpu.op_class::SimdFloatDiv                   6      0.00%     57.51% # Class of executed instruction
system.cpu.op_class::SimdFloatMisc                  0      0.00%     57.51% # Class of executed instruction
system.cpu.op_class::SimdFloatMult            2306615      5.65%     63.15% # Class of executed instruction
system.cpu.op_class::SimdFloatMultAcc               0      0.00%     63.15% # Class of executed instruction
system.cpu.op_class::SimdFloatSqrt                  4      0.00%     63.15% # Class of executed instruction
system.cpu.op_class::SimdReduceAdd                  0      0.00%     63.15% # Class of executed instruction
system.cpu.op_class::SimdReduceAlu                  0      0.00%     63.15% # Class of executed instruction
system.cpu.op_class::SimdReduceCmp                  0      0.00%     63.15% # Class of executed instruction
system.cpu.op_class::SimdFloatReduceAdd             0      0.00%     63.15% # Class of executed instruction
system.cpu.op_class::SimdFloatReduceCmp             0      0.00%     63.15% # Class of executed instruction
system.cpu.op_class::SimdAes                        0      0.00%     63.15% # Class of executed instruction
system.cpu.op_class::SimdAesMix                     0      0.00%     63.15% # Class of executed instruction
system.cpu.op_class::SimdSha1Hash                   0      0.00%     63.15% # Class of executed instruction
system.cpu.op_class::SimdSha1Hash2                  0      0.00%     63.15% # Class of executed instruction
system.cpu.op_class::SimdSha256Hash                 0      0.00%     63.15% # Class of executed instruction
system.cpu.op_class::SimdSha256Hash2                0      0.00%     63.15% # Class of executed instruction
system.cpu.op_class::SimdShaSigma2                  0      0.00%     63.15% # Class of executed instruction
system.cpu.op_class::SimdShaSigma3                  0      0.00%     63.15% # Class of executed instruction
system.cpu.op_class::SimdPredAlu                    0      0.00%     63.15% # Class of executed instruction
system.cpu.op_class::MemRead                  1222403      2.99%     66.15% # Class of executed instruction
system.cpu.op_class::MemWrite                  415987      1.02%     67.17% # Class of executed instruction
system.cpu.op_class::FloatMemRead            10532046     25.79%     92.96% # Class of executed instruction
system.cpu.op_class::FloatMemWrite            2876972      7.04%    100.00% # Class of executed instruction
system.cpu.op_class::IprAccess                      0      0.00%    100.00% # Class of executed instruction
system.cpu.op_class::InstPrefetch                   0      0.00%    100.00% # Class of executed instruction
system.cpu.op_class::total                   40838130                       # Class of executed instruction
system.cpu.workload.numSyscalls                    77                       # Number of system calls
system.l2bus.snoop_filter.hit_multi_requests            0                       # Number of requests hitting in the snoop filter with multiple (>1) holders of the requested data.
system.l2bus.snoop_filter.hit_multi_snoops            0                       # Number of snoops hitting in the snoop filter with multiple (>1) holders of the requested data.
system.l2bus.snoop_filter.hit_single_requests       399663                       # Number of requests hitting in the snoop filter with a single holder of the requested data.
system.l2bus.snoop_filter.hit_single_snoops         1401                       # Number of snoops hitting in the snoop filter with a single holder of the requested data.
system.l2bus.snoop_filter.tot_requests         800606                       # Total number of requests made to the snoop filter.
system.l2bus.snoop_filter.tot_snoops             1401                       # Total number of snoops made to the snoop filter.
system.membus.snoop_filter.hit_multi_requests            0                       # Number of requests hitting in the snoop filter with multiple (>1) holders of the requested data.
system.membus.snoop_filter.hit_multi_snoops            0                       # Number of snoops hitting in the snoop filter with multiple (>1) holders of the requested data.
system.membus.snoop_filter.hit_single_requests        14953                       # Number of requests hitting in the snoop filter with a single holder of the requested data.
system.membus.snoop_filter.hit_single_snoops            0                       # Number of snoops hitting in the snoop filter with a single holder of the requested data.
system.membus.snoop_filter.tot_requests         46297                       # Total number of requests made to the snoop filter.
system.membus.snoop_filter.tot_snoops               0                       # Total number of snoops made to the snoop filter.
system.clk_domain.clock                          1000                       # Clock period in ticks
system.clk_domain.voltage_domain.voltage            1                       # Voltage in Volts
system.cpu.dcache.demand_hits::.cpu.data     14655302                       # number of demand (read+write) hits
system.cpu.dcache.demand_hits::total         14655302                       # number of demand (read+write) hits
system.cpu.dcache.overall_hits::.cpu.data     14655302                       # number of overall hits
system.cpu.dcache.overall_hits::total        14655302                       # number of overall hits
system.cpu.dcache.demand_misses::.cpu.data       392175                       # number of demand (read+write) misses
system.cpu.dcache.demand_misses::total         392175                       # number of demand (read+write) misses
system.cpu.dcache.overall_misses::.cpu.data       392175                       # number of overall misses
system.cpu.dcache.overall_misses::total        392175                       # number of overall misses
system.cpu.dcache.demand_miss_latency::.cpu.data  12313221000                       # number of demand (read+write) miss cycles
system.cpu.dcache.demand_miss_latency::total  12313221000                       # number of demand (read+write) miss cycles
system.cpu.dcache.overall_miss_latency::.cpu.data  12313221000                       # number of overall miss cycles
system.cpu.dcache.overall_miss_latency::total  12313221000                       # number of overall miss cycles
system.cpu.dcache.demand_accesses::.cpu.data     15047477                       # number of demand (read+write) accesses
system.cpu.dcache.demand_accesses::total     15047477                       # number of demand (read+write) accesses
system.cpu.dcache.overall_accesses::.cpu.data     15047477                       # number of overall (read+write) accesses
system.cpu.dcache.overall_accesses::total     15047477                       # number of overall (read+write) accesses
system.cpu.dcache.demand_miss_rate::.cpu.data     0.026063                       # miss rate for demand accesses
system.cpu.dcache.demand_miss_rate::total     0.026063                       # miss rate for demand accesses
system.cpu.dcache.overall_miss_rate::.cpu.data     0.026063                       # miss rate for overall accesses
system.cpu.dcache.overall_miss_rate::total     0.026063                       # miss rate for overall accesses
system.cpu.dcache.demand_avg_miss_latency::.cpu.data 31397.261427                       # average overall miss latency
system.cpu.dcache.demand_avg_miss_latency::total 31397.261427                       # average overall miss latency
system.cpu.dcache.overall_avg_miss_latency::.cpu.data 31397.261427                       # average overall miss latency
system.cpu.dcache.overall_avg_miss_latency::total 31397.261427                       # average overall miss latency
system.cpu.dcache.blocked_cycles::no_mshrs            0                       # number of cycles access was blocked
system.cpu.dcache.blocked_cycles::no_targets            0                       # number of cycles access was blocked
system.cpu.dcache.blocked::no_mshrs                 0                       # number of cycles access was blocked
system.cpu.dcache.blocked::no_targets               0                       # number of cycles access was blocked
system.cpu.dcache.avg_blocked_cycles::no_mshrs          nan                       # average number of cycles each access was blocked
system.cpu.dcache.avg_blocked_cycles::no_targets          nan                       # average number of cycles each access was blocked
system.cpu.dcache.writebacks::.writebacks       377249                       # number of writebacks
system.cpu.dcache.writebacks::total            377249                       # number of writebacks
system.cpu.dcache.demand_mshr_misses::.cpu.data       392175                       # number of demand (read+write) MSHR misses
system.cpu.dcache.demand_mshr_misses::total       392175                       # number of demand (read+write) MSHR misses
system.cpu.dcache.overall_mshr_misses::.cpu.data       392175                       # number of overall MSHR misses
system.cpu.dcache.overall_mshr_misses::total       392175                       # number of overall MSHR misses
system.cpu.dcache.demand_mshr_miss_latency::.cpu.data  11528871000                       # number of demand (read+write) MSHR miss cycles
system.cpu.dcache.demand_mshr_miss_latency::total  11528871000                       # number of demand (read+write) MSHR miss cycles
system.cpu.dcache.overall_mshr_miss_latency::.cpu.data  11528871000                       # number of overall MSHR miss cycles
system.cpu.dcache.overall_mshr_miss_latency::total  11528871000                       # number of overall MSHR miss cycles
system.cpu.dcache.demand_mshr_miss_rate::.cpu.data     0.026063                       # mshr miss rate for demand accesses
system.cpu.dcache.demand_mshr_miss_rate::total     0.026063                       # mshr miss rate for demand accesses
system.cpu.dcache.overall_mshr_miss_rate::.cpu.data     0.026063                       # mshr miss rate for overall accesses
system.cpu.dcache.overall_mshr_miss_rate::total     0.026063                       # mshr miss rate for overall accesses
system.cpu.dcache.demand_avg_mshr_miss_latency::.cpu.data 29397.261427                       # average overall mshr miss latency
system.cpu.dcache.demand_avg_mshr_miss_latency::total 29397.261427                       # average overall mshr miss latency
system.cpu.dcache.overall_avg_mshr_miss_latency::.cpu.data 29397.261427                       # average overall mshr miss latency
system.cpu.dcache.overall_avg_mshr_miss_latency::total 29397.261427                       # average overall mshr miss latency
system.cpu.dcache.replacements                 391151                       # number of replacements
system.cpu.dcache.ReadReq_hits::.cpu.data     11481479                       # number of ReadReq hits
system.cpu.dcache.ReadReq_hits::total        11481479                       # number of ReadReq hits
system.cpu.dcache.ReadReq_misses::.cpu.data       273021                       # number of ReadReq misses
system.cpu.dcache.ReadReq_misses::total        273021                       # number of ReadReq misses
system.cpu.dcache.ReadReq_miss_latency::.cpu.data   7653518000                       # number of ReadReq miss cycles
system.cpu.dcache.ReadReq_miss_latency::total   7653518000                       # number of ReadReq miss cycles
system.cpu.dcache.ReadReq_accesses::.cpu.data     11754500                       # number of ReadReq accesses(hits+misses)
system.cpu.dcache.ReadReq_accesses::total     11754500                       # number of ReadReq accesses(hits+misses)
system.cpu.dcache.ReadReq_miss_rate::.cpu.data     0.023227                       # miss rate for ReadReq accesses
system.cpu.dcache.ReadReq_miss_rate::total     0.023227                       # miss rate for ReadReq accesses
system.cpu.dcache.ReadReq_avg_miss_latency::.cpu.data 28032.708107                       # average ReadReq miss latency
system.cpu.dcache.ReadReq_avg_miss_latency::total 28032.708107                       # average ReadReq miss latency
system.cpu.dcache.ReadReq_mshr_misses::.cpu.data       273021                       # number of ReadReq MSHR misses
system.cpu.dcache.ReadReq_mshr_misses::total       273021                       # number of ReadReq MSHR misses
system.cpu.dcache.ReadReq_mshr_miss_latency::.cpu.data   7107476000                       # number of ReadReq MSHR miss cycles
system.cpu.dcache.ReadReq_mshr_miss_latency::total   7107476000                       # number of ReadReq MSHR miss cycles
system.cpu.dcache.ReadReq_mshr_miss_rate::.cpu.data     0.023227                       # mshr miss rate for ReadReq accesses
system.cpu.dcache.ReadReq_mshr_miss_rate::total     0.023227                       # mshr miss rate for ReadReq accesses
system.cpu.dcache.ReadReq_avg_mshr_miss_latency::.cpu.data 26032.708107                       # average ReadReq mshr miss latency
system.cpu.dcache.ReadReq_avg_mshr_miss_latency::total 26032.708107                       # average ReadReq mshr miss latency
system.cpu.dcache.WriteReq_hits::.cpu.data      3173823                       # number of WriteReq hits
system.cpu.dcache.WriteReq_hits::total        3173823                       # number of WriteReq hits
system.cpu.dcache.WriteReq_misses::.cpu.data       119154                       # number of WriteReq misses
system.cpu.dcache.WriteReq_misses::total       119154                       # number of WriteReq misses
system.cpu.dcache.WriteReq_miss_latency::.cpu.data   4659703000                       # number of WriteReq miss cycles
system.cpu.dcache.WriteReq_miss_latency::total   4659703000                       # number of WriteReq miss cycles
system.cpu.dcache.WriteReq_accesses::.cpu.data      3292977                       # number of WriteReq accesses(hits+misses)
system.cpu.dcache.WriteReq_accesses::total      3292977                       # number of WriteReq accesses(hits+misses)
system.cpu.dcache.WriteReq_miss_rate::.cpu.data     0.036184                       # miss rate for WriteReq accesses
system.cpu.dcache.WriteReq_miss_rate::total     0.036184                       # miss rate for WriteReq accesses
system.cpu.dcache.WriteReq_avg_miss_latency::.cpu.data 39106.559578                       # average WriteReq miss latency
system.cpu.dcache.WriteReq_avg_miss_latency::total 39106.559578                       # average WriteReq miss latency
system.cpu.dcache.WriteReq_mshr_misses::.cpu.data       119154                       # number of WriteReq MSHR misses
system.cpu.dcache.WriteReq_mshr_misses::total       119154                       # number of WriteReq MSHR misses
system.cpu.dcache.WriteReq_mshr_miss_latency::.cpu.data   4421395000                       # number of WriteReq MSHR miss cycles
system.cpu.dcache.WriteReq_mshr_miss_latency::total   4421395000                       # number of WriteReq MSHR miss cycles
system.cpu.dcache.WriteReq_mshr_miss_rate::.cpu.data     0.036184                       # mshr miss rate for WriteReq accesses
system.cpu.dcache.WriteReq_mshr_miss_rate::total     0.036184                       # mshr miss rate for WriteReq accesses
system.cpu.dcache.WriteReq_avg_mshr_miss_latency::.cpu.data 37106.559578                       # average WriteReq mshr miss latency
system.cpu.dcache.WriteReq_avg_mshr_miss_latency::total 37106.559578                       # average WriteReq mshr miss latency
system.cpu.dcache.power_state.pwrStateResidencyTicks::UNDEFINED 103259811000                       # Cumulative time (in ticks) in various power states
system.cpu.dcache.tags.tagsinuse          1021.768732                       # Cycle average of tags in use
system.cpu.dcache.tags.total_refs            15047477                       # Total number of references to valid blocks.
system.cpu.dcache.tags.sampled_refs            392175                       # Sample count of references to valid blocks.
system.cpu.dcache.tags.avg_refs             38.369292                       # Average number of references to valid blocks.
system.cpu.dcache.tags.warmup_cycle            224000                       # Cycle when the warmup percentage was hit.
system.cpu.dcache.tags.occ_blocks::.cpu.data  1021.768732                       # Average occupied blocks per requestor
system.cpu.dcache.tags.occ_percent::.cpu.data     0.997821                       # Average percentage of cache occupancy
system.cpu.dcache.tags.occ_percent::total     0.997821                       # Average percentage of cache occupancy
system.cpu.dcache.tags.occ_task_id_blocks::1024         1024                       # Occupied blocks per task id
system.cpu.dcache.tags.age_task_id_blocks_1024::0           27                       # Occupied blocks per task id
system.cpu.dcache.tags.age_task_id_blocks_1024::1          101                       # Occupied blocks per task id
system.cpu.dcache.tags.age_task_id_blocks_1024::2          895                       # Occupied blocks per task id
system.cpu.dcache.tags.age_task_id_blocks_1024::3            1                       # Occupied blocks per task id
system.cpu.dcache.tags.occ_task_id_percent::1024            1                       # Percentage of cache occupancy per task id
system.cpu.dcache.tags.tag_accesses          30487129                       # Number of tag accesses
system.cpu.dcache.tags.data_accesses         30487129                       # Number of data accesses
system.cpu.dcache.tags.power_state.pwrStateResidencyTicks::UNDEFINED 103259811000                       # Cumulative time (in ticks) in various power states
system.cpu.dtb.rdAccesses                    11754501                       # TLB accesses on read requests
system.cpu.dtb.wrAccesses                     3293001                       # TLB accesses on write requests
system.cpu.dtb.rdMisses                          5368                       # TLB misses on read requests
system.cpu.dtb.wrMisses                          1839                       # TLB misses on write requests
system.cpu.dtb.walker.power_state.pwrStateResidencyTicks::UNDEFINED 103259811000                       # Cumulative time (in ticks) in various power states
system.cpu.icache.demand_hits::.cpu.inst     30572688                       # number of demand (read+write) hits
system.cpu.icache.demand_hits::total         30572688                       # number of demand (read+write) hits
system.cpu.icache.overall_hits::.cpu.inst     30572688                       # number of overall hits
system.cpu.icache.overall_hits::total        30572688                       # number of overall hits
system.cpu.icache.demand_misses::.cpu.inst         8768                       # number of demand (read+write) misses
system.cpu.icache.demand_misses::total           8768                       # number of demand (read+write) misses
system.cpu.icache.overall_misses::.cpu.inst         8768                       # number of overall misses
system.cpu.icache.overall_misses::total          8768                       # number of overall misses
system.cpu.icache.demand_miss_latency::.cpu.inst    490977000                       # number of demand (read+write) miss cycles
system.cpu.icache.demand_miss_latency::total    490977000                       # number of demand (read+write) miss cycles
system.cpu.icache.overall_miss_latency::.cpu.inst    490977000                       # number of overall miss cycles
system.cpu.icache.overall_miss_latency::total    490977000                       # number of overall miss cycles
system.cpu.icache.demand_accesses::.cpu.inst     30581456                       # number of demand (read+write) accesses
system.cpu.icache.demand_accesses::total     30581456                       # number of demand (read+write) accesses
system.cpu.icache.overall_accesses::.cpu.inst     30581456                       # number of overall (read+write) accesses
system.cpu.icache.overall_accesses::total     30581456                       # number of overall (read+write) accesses
system.cpu.icache.demand_miss_rate::.cpu.inst     0.000287                       # miss rate for demand accesses
system.cpu.icache.demand_miss_rate::total     0.000287                       # miss rate for demand accesses
system.cpu.icache.overall_miss_rate::.cpu.inst     0.000287                       # miss rate for overall accesses
system.cpu.icache.overall_miss_rate::total     0.000287                       # miss rate for overall accesses
system.cpu.icache.demand_avg_miss_latency::.cpu.inst 55996.464416                       # average overall miss latency
system.cpu.icache.demand_avg_miss_latency::total 55996.464416                       # average overall miss latency
system.cpu.icache.overall_avg_miss_latency::.cpu.inst 55996.464416                       # average overall miss latency
system.cpu.icache.overall_avg_miss_latency::total 55996.464416                       # average overall miss latency
system.cpu.icache.blocked_cycles::no_mshrs            0                       # number of cycles access was blocked
system.cpu.icache.blocked_cycles::no_targets            0                       # number of cycles access was blocked
system.cpu.icache.blocked::no_mshrs                 0                       # number of cycles access was blocked
system.cpu.icache.blocked::no_targets               0                       # number of cycles access was blocked
system.cpu.icache.avg_blocked_cycles::no_mshrs          nan                       # average number of cycles each access was blocked
system.cpu.icache.avg_blocked_cycles::no_targets          nan                       # average number of cycles each access was blocked
system.cpu.icache.demand_mshr_misses::.cpu.inst         8768                       # number of demand (read+write) MSHR misses
system.cpu.icache.demand_mshr_misses::total         8768                       # number of demand (read+write) MSHR misses
system.cpu.icache.overall_mshr_misses::.cpu.inst         8768                       # number of overall MSHR misses
system.cpu.icache.overall_mshr_misses::total         8768                       # number of overall MSHR misses
system.cpu.icache.demand_mshr_miss_latency::.cpu.inst    473441000                       # number of demand (read+write) MSHR miss cycles
system.cpu.icache.demand_mshr_miss_latency::total    473441000                       # number of demand (read+write) MSHR miss cycles
system.cpu.icache.overall_mshr_miss_latency::.cpu.inst    473441000                       # number of overall MSHR miss cycles
system.cpu.icache.overall_mshr_miss_latency::total    473441000                       # number of overall MSHR miss cycles
system.cpu.icache.demand_mshr_miss_rate::.cpu.inst     0.000287                       # mshr miss rate for demand accesses
system.cpu.icache.demand_mshr_miss_rate::total     0.000287                       # mshr miss rate for demand accesses
system.cpu.icache.overall_mshr_miss_rate::.cpu.inst     0.000287                       # mshr miss rate for overall accesses
system.cpu.icache.overall_mshr_miss_rate::total     0.000287                       # mshr miss rate for overall accesses
system.cpu.icache.demand_avg_mshr_miss_latency::.cpu.inst 53996.464416                       # average overall mshr miss latency
system.cpu.icache.demand_avg_mshr_miss_latency::total 53996.464416                       # average overall mshr miss latency
system.cpu.icache.overall_avg_mshr_miss_latency::.cpu.inst 53996.464416                       # average overall mshr miss latency
system.cpu.icache.overall_avg_mshr_miss_latency::total 53996.464416                       # average overall mshr miss latency
system.cpu.icache.replacements                   8512                       # number of replacements
system.cpu.icache.ReadReq_hits::.cpu.inst     30572688                       # number of ReadReq hits
system.cpu.icache.ReadReq_hits::total        30572688                       # number of ReadReq hits
system.cpu.icache.ReadReq_misses::.cpu.inst         8768                       # number of ReadReq misses
system.cpu.icache.ReadReq_misses::total          8768                       # number of ReadReq misses
system.cpu.icache.ReadReq_miss_latency::.cpu.inst    490977000                       # number of ReadReq miss cycles
system.cpu.icache.ReadReq_miss_latency::total    490977000                       # number of ReadReq miss cycles
system.cpu.icache.ReadReq_accesses::.cpu.inst     30581456                       # number of ReadReq accesses(hits+misses)
system.cpu.icache.ReadReq_accesses::total     30581456                       # number of ReadReq accesses(hits+misses)
system.cpu.icache.ReadReq_miss_rate::.cpu.inst     0.000287                       # miss rate for ReadReq accesses
system.cpu.icache.ReadReq_miss_rate::total     0.000287                       # miss rate for ReadReq accesses
system.cpu.icache.ReadReq_avg_miss_latency::.cpu.inst 55996.464416                       # average ReadReq miss latency
system.cpu.icache.ReadReq_avg_miss_latency::total 55996.464416                       # average ReadReq miss latency
system.cpu.icache.ReadReq_mshr_misses::.cpu.inst         8768                       # number of ReadReq MSHR misses
system.cpu.icache.ReadReq_mshr_misses::total         8768                       # number of ReadReq MSHR misses
system.cpu.icache.ReadReq_mshr_miss_latency::.cpu.inst    473441000                       # number of ReadReq MSHR miss cycles
system.cpu.icache.ReadReq_mshr_miss_latency::total    473441000                       # number of ReadReq MSHR miss cycles
system.cpu.icache.ReadReq_mshr_miss_rate::.cpu.inst     0.000287                       # mshr miss rate for ReadReq accesses
system.cpu.icache.ReadReq_mshr_miss_rate::total     0.000287                       # mshr miss rate for ReadReq accesses
system.cpu.icache.ReadReq_avg_mshr_miss_latency::.cpu.inst 53996.464416                       # average ReadReq mshr miss latency
system.cpu.icache.ReadReq_avg_mshr_miss_latency::total 53996.464416                       # average ReadReq mshr miss latency
system.cpu.icache.power_state.pwrStateResidencyTicks::UNDEFINED 103259811000                       # Cumulative time (in ticks) in various power states
system.cpu.icache.tags.tagsinuse           255.873219                       # Cycle average of tags in use
system.cpu.icache.tags.total_refs            30581456                       # Total number of references to valid blocks.
system.cpu.icache.tags.sampled_refs              8768                       # Sample count of references to valid blocks.
system.cpu.icache.tags.avg_refs           3487.848540                       # Average number of references to valid blocks.
system.cpu.icache.tags.warmup_cycle            107000                       # Cycle when the warmup percentage was hit.
system.cpu.icache.tags.occ_blocks::.cpu.inst   255.873219                       # Average occupied blocks per requestor
system.cpu.icache.tags.occ_percent::.cpu.inst     0.999505                       # Average percentage of cache occupancy
system.cpu.icache.tags.occ_percent::total     0.999505                       # Average percentage of cache occupancy
system.cpu.icache.tags.occ_task_id_blocks::1024          256                       # Occupied blocks per task id
system.cpu.icache.tags.age_task_id_blocks_1024::0           33                       # Occupied blocks per task id
system.cpu.icache.tags.age_task_id_blocks_1024::1          109                       # Occupied blocks per task id
system.cpu.icache.tags.age_task_id_blocks_1024::2          113                       # Occupied blocks per task id
system.cpu.icache.tags.age_task_id_blocks_1024::4            1                       # Occupied blocks per task id
system.cpu.icache.tags.occ_task_id_percent::1024            1                       # Percentage of cache occupancy per task id
system.cpu.icache.tags.tag_accesses          61171680                       # Number of tag accesses
system.cpu.icache.tags.data_accesses         61171680                       # Number of data accesses
system.cpu.icache.tags.power_state.pwrStateResidencyTicks::UNDEFINED 103259811000                       # Cumulative time (in ticks) in various power states
system.cpu.interrupts.clk_domain.clock          16000                       # Clock period in ticks
system.cpu.itb.rdAccesses                           0                       # TLB accesses on read requests
system.cpu.itb.wrAccesses                    30581456                       # TLB accesses on write requests
system.cpu.itb.rdMisses                             0                       # TLB misses on read requests
system.cpu.itb.wrMisses                           132                       # TLB misses on write requests
system.cpu.itb.walker.power_state.pwrStateResidencyTicks::UNDEFINED 103259811000                       # Cumulative time (in ticks) in various power states
system.cpu.power_state.pwrStateResidencyTicks::ON 103259811000                       # Cumulative time (in ticks) in various power states
system.cpu.thread_0.numInsts                        0                       # Number of Instructions committed
system.cpu.thread_0.numOps                          0                       # Number of Ops committed
system.cpu.thread_0.numMemRefs                      0                       # Number of Memory References
system.l2bus.trans_dist::ReadResp              281789                       # Transaction distribution
system.l2bus.trans_dist::WritebackDirty        387060                       # Transaction distribution
system.l2bus.trans_dist::CleanEvict             27921                       # Transaction distribution
system.l2bus.trans_dist::ReadExReq             119154                       # Transaction distribution
system.l2bus.trans_dist::ReadExResp            119154                       # Transaction distribution
system.l2bus.trans_dist::ReadSharedReq         281789                       # Transaction distribution
system.l2bus.pkt_count_system.cpu.icache.mem_side_port::system.l2cache.cpu_side_port        26048                       # Packet count per connected requestor and responder (bytes)
system.l2bus.pkt_count_system.cpu.dcache.mem_side_port::system.l2cache.cpu_side_port      1175501                       # Packet count per connected requestor and responder (bytes)
system.l2bus.pkt_count::total                 1201549                       # Packet count per connected requestor and responder (bytes)
system.l2bus.pkt_size_system.cpu.icache.mem_side_port::system.l2cache.cpu_side_port       561152                       # Cumulative packet size per connected requestor and responder (bytes)
system.l2bus.pkt_size_system.cpu.dcache.mem_side_port::system.l2cache.cpu_side_port     49243136                       # Cumulative packet size per connected requestor and responder (bytes)
system.l2bus.pkt_size::total                 49804288                       # Cumulative packet size per connected requestor and responder (bytes)
system.l2bus.snoops                             15318                       # Total snoops (count)
system.l2bus.snoopTraffic                      627904                       # Total snoop traffic (bytes)
system.l2bus.snoop_fanout::samples             416261                       # Request fanout histogram
system.l2bus.snoop_fanout::mean              0.003366                       # Request fanout histogram
system.l2bus.snoop_fanout::stdev             0.057917                       # Request fanout histogram
system.l2bus.snoop_fanout::underflows               0      0.00%      0.00% # Request fanout histogram
system.l2bus.snoop_fanout::0                   414860     99.66%     99.66% # Request fanout histogram
system.l2bus.snoop_fanout::1                     1401      0.34%    100.00% # Request fanout histogram
system.l2bus.snoop_fanout::2                        0      0.00%    100.00% # Request fanout histogram
system.l2bus.snoop_fanout::overflows                0      0.00%    100.00% # Request fanout histogram
system.l2bus.snoop_fanout::min_value                0                       # Request fanout histogram
system.l2bus.snoop_fanout::max_value                1                       # Request fanout histogram
system.l2bus.snoop_fanout::total               416261                       # Request fanout histogram
system.l2bus.power_state.pwrStateResidencyTicks::UNDEFINED 103259811000                       # Cumulative time (in ticks) in various power states
system.l2bus.reqLayer0.occupancy           1555104000                       # Layer occupancy (ticks)
system.l2bus.reqLayer0.utilization                1.5                       # Layer utilization (%)
system.l2bus.respLayer0.occupancy            26304000                       # Layer occupancy (ticks)
system.l2bus.respLayer0.utilization               0.0                       # Layer utilization (%)
system.l2bus.respLayer1.occupancy          1176525000                       # Layer occupancy (ticks)
system.l2bus.respLayer1.utilization               1.1                       # Layer utilization (%)
system.l2cache.demand_hits::.cpu.inst            5473                       # number of demand (read+write) hits
system.l2cache.demand_hits::.cpu.data          364126                       # number of demand (read+write) hits
system.l2cache.demand_hits::total              369599                       # number of demand (read+write) hits
system.l2cache.overall_hits::.cpu.inst           5473                       # number of overall hits
system.l2cache.overall_hits::.cpu.data         364126                       # number of overall hits
system.l2cache.overall_hits::total             369599                       # number of overall hits
system.l2cache.demand_misses::.cpu.inst          3295                       # number of demand (read+write) misses
system.l2cache.demand_misses::.cpu.data         28049                       # number of demand (read+write) misses
system.l2cache.demand_misses::total             31344                       # number of demand (read+write) misses
system.l2cache.overall_misses::.cpu.inst         3295                       # number of overall misses
system.l2cache.overall_misses::.cpu.data        28049                       # number of overall misses
system.l2cache.overall_misses::total            31344                       # number of overall misses
system.l2cache.demand_miss_latency::.cpu.inst    332142000                       # number of demand (read+write) miss cycles
system.l2cache.demand_miss_latency::.cpu.data   2703782000                       # number of demand (read+write) miss cycles
system.l2cache.demand_miss_latency::total   3035924000                       # number of demand (read+write) miss cycles
system.l2cache.overall_miss_latency::.cpu.inst    332142000                       # number of overall miss cycles
system.l2cache.overall_miss_latency::.cpu.data   2703782000                       # number of overall miss cycles
system.l2cache.overall_miss_latency::total   3035924000                       # number of overall miss cycles
system.l2cache.demand_accesses::.cpu.inst         8768                       # number of demand (read+write) accesses
system.l2cache.demand_accesses::.cpu.data       392175                       # number of demand (read+write) accesses
system.l2cache.demand_accesses::total          400943                       # number of demand (read+write) accesses
system.l2cache.overall_accesses::.cpu.inst         8768                       # number of overall (read+write) accesses
system.l2cache.overall_accesses::.cpu.data       392175                       # number of overall (read+write) accesses
system.l2cache.overall_accesses::total         400943                       # number of overall (read+write) accesses
system.l2cache.demand_miss_rate::.cpu.inst     0.375798                       # miss rate for demand accesses
system.l2cache.demand_miss_rate::.cpu.data     0.071522                       # miss rate for demand accesses
system.l2cache.demand_miss_rate::total       0.078176                       # miss rate for demand accesses
system.l2cache.overall_miss_rate::.cpu.inst     0.375798                       # miss rate for overall accesses
system.l2cache.overall_miss_rate::.cpu.data     0.071522                       # miss rate for overall accesses
system.l2cache.overall_miss_rate::total      0.078176                       # miss rate for overall accesses
system.l2cache.demand_avg_miss_latency::.cpu.inst 100801.820941                       # average overall miss latency
system.l2cache.demand_avg_miss_latency::.cpu.data 96394.951692                       # average overall miss latency
system.l2cache.demand_avg_miss_latency::total 96858.218479                       # average overall miss latency
system.l2cache.overall_avg_miss_latency::.cpu.inst 100801.820941                       # average overall miss latency
system.l2cache.overall_avg_miss_latency::.cpu.data 96394.951692                       # average overall miss latency
system.l2cache.overall_avg_miss_latency::total 96858.218479                       # average overall miss latency
system.l2cache.blocked_cycles::no_mshrs             0                       # number of cycles access was blocked
system.l2cache.blocked_cycles::no_targets            0                       # number of cycles access was blocked
system.l2cache.blocked::no_mshrs                    0                       # number of cycles access was blocked
system.l2cache.blocked::no_targets                  0                       # number of cycles access was blocked
system.l2cache.avg_blocked_cycles::no_mshrs          nan                       # average number of cycles each access was blocked
system.l2cache.avg_blocked_cycles::no_targets          nan                       # average number of cycles each access was blocked
system.l2cache.writebacks::.writebacks           9811                       # number of writebacks
system.l2cache.writebacks::total                 9811                       # number of writebacks
system.l2cache.demand_mshr_misses::.cpu.inst         3295                       # number of demand (read+write) MSHR misses
system.l2cache.demand_mshr_misses::.cpu.data        28049                       # number of demand (read+write) MSHR misses
system.l2cache.demand_mshr_misses::total        31344                       # number of demand (read+write) MSHR misses
system.l2cache.overall_mshr_misses::.cpu.inst         3295                       # number of overall MSHR misses
system.l2cache.overall_mshr_misses::.cpu.data        28049                       # number of overall MSHR misses
system.l2cache.overall_mshr_misses::total        31344                       # number of overall MSHR misses
system.l2cache.demand_mshr_miss_latency::.cpu.inst    266242000                       # number of demand (read+write) MSHR miss cycles
system.l2cache.demand_mshr_miss_latency::.cpu.data   2142802000                       # number of demand (read+write) MSHR miss cycles
system.l2cache.demand_mshr_miss_latency::total   2409044000                       # number of demand (read+write) MSHR miss cycles
system.l2cache.overall_mshr_miss_latency::.cpu.inst    266242000                       # number of overall MSHR miss cycles
system.l2cache.overall_mshr_miss_latency::.cpu.data   2142802000                       # number of overall MSHR miss cycles
system.l2cache.overall_mshr_miss_latency::total   2409044000                       # number of overall MSHR miss cycles
system.l2cache.demand_mshr_miss_rate::.cpu.inst     0.375798                       # mshr miss rate for demand accesses
system.l2cache.demand_mshr_miss_rate::.cpu.data     0.071522                       # mshr miss rate for demand accesses
system.l2cache.demand_mshr_miss_rate::total     0.078176                       # mshr miss rate for demand accesses
system.l2cache.overall_mshr_miss_rate::.cpu.inst     0.375798                       # mshr miss rate for overall accesses
system.l2cache.overall_mshr_miss_rate::.cpu.data     0.071522                       # mshr miss rate for overall accesses
system.l2cache.overall_mshr_miss_rate::total     0.078176                       # mshr miss rate for overall accesses
system.l2cache.demand_avg_mshr_miss_latency::.cpu.inst 80801.820941                       # average overall mshr miss latency
system.l2cache.demand_avg_mshr_miss_latency::.cpu.data 76394.951692                       # average overall mshr miss latency
system.l2cache.demand_avg_mshr_miss_latency::total 76858.218479                       # average overall mshr miss latency
system.l2cache.overall_avg_mshr_miss_latency::.cpu.inst 80801.820941                       # average overall mshr miss latency
system.l2cache.overall_avg_mshr_miss_latency::.cpu.data 76394.951692                       # average overall mshr miss latency
system.l2cache.overall_avg_mshr_miss_latency::total 76858.218479                       # average overall mshr miss latency
system.l2cache.replacements                     14845                       # number of replacements
system.l2cache.WritebackDirty_hits::.writebacks       377246                       # number of WritebackDirty hits
system.l2cache.WritebackDirty_hits::total       377246                       # number of WritebackDirty hits
system.l2cache.WritebackDirty_misses::.writebacks            3                       # number of WritebackDirty misses
system.l2cache.WritebackDirty_misses::total            3                       # number of WritebackDirty misses
system.l2cache.WritebackDirty_accesses::.writebacks       377249                       # number of WritebackDirty accesses(hits+misses)
system.l2cache.WritebackDirty_accesses::total       377249                       # number of WritebackDirty accesses(hits+misses)
system.l2cache.WritebackDirty_miss_rate::.writebacks     0.000008                       # miss rate for WritebackDirty accesses
system.l2cache.WritebackDirty_miss_rate::total     0.000008                       # miss rate for WritebackDirty accesses
system.l2cache.WritebackDirty_mshr_misses::.writebacks            3                       # number of WritebackDirty MSHR misses
system.l2cache.WritebackDirty_mshr_misses::total            3                       # number of WritebackDirty MSHR misses
system.l2cache.WritebackDirty_mshr_miss_rate::.writebacks     0.000008                       # mshr miss rate for WritebackDirty accesses
system.l2cache.WritebackDirty_mshr_miss_rate::total     0.000008                       # mshr miss rate for WritebackDirty accesses
system.l2cache.CleanEvict_mshr_misses::.writebacks         1033                       # number of CleanEvict MSHR misses
system.l2cache.CleanEvict_mshr_misses::total         1033                       # number of CleanEvict MSHR misses
system.l2cache.CleanEvict_mshr_miss_rate::.writebacks          inf                       # mshr miss rate for CleanEvict accesses
system.l2cache.CleanEvict_mshr_miss_rate::total          inf                       # mshr miss rate for CleanEvict accesses
system.l2cache.ReadExReq_hits::.cpu.data        98323                       # number of ReadExReq hits
system.l2cache.ReadExReq_hits::total            98323                       # number of ReadExReq hits
system.l2cache.ReadExReq_misses::.cpu.data        20831                       # number of ReadExReq misses
system.l2cache.ReadExReq_misses::total          20831                       # number of ReadExReq misses
system.l2cache.ReadExReq_miss_latency::.cpu.data   1998930000                       # number of ReadExReq miss cycles
system.l2cache.ReadExReq_miss_latency::total   1998930000                       # number of ReadExReq miss cycles
system.l2cache.ReadExReq_accesses::.cpu.data       119154                       # number of ReadExReq accesses(hits+misses)
system.l2cache.ReadExReq_accesses::total       119154                       # number of ReadExReq accesses(hits+misses)
system.l2cache.ReadExReq_miss_rate::.cpu.data     0.174824                       # miss rate for ReadExReq accesses
system.l2cache.ReadExReq_miss_rate::total     0.174824                       # miss rate for ReadExReq accesses
system.l2cache.ReadExReq_avg_miss_latency::.cpu.data 95959.387451                       # average ReadExReq miss latency
system.l2cache.ReadExReq_avg_miss_latency::total 95959.387451                       # average ReadExReq miss latency
system.l2cache.ReadExReq_mshr_misses::.cpu.data        20831                       # number of ReadExReq MSHR misses
system.l2cache.ReadExReq_mshr_misses::total        20831                       # number of ReadExReq MSHR misses
system.l2cache.ReadExReq_mshr_miss_latency::.cpu.data   1582310000                       # number of ReadExReq MSHR miss cycles
system.l2cache.ReadExReq_mshr_miss_latency::total   1582310000                       # number of ReadExReq MSHR miss cycles
system.l2cache.ReadExReq_mshr_miss_rate::.cpu.data     0.174824                       # mshr miss rate for ReadExReq accesses
system.l2cache.ReadExReq_mshr_miss_rate::total     0.174824                       # mshr miss rate for ReadExReq accesses
system.l2cache.ReadExReq_avg_mshr_miss_latency::.cpu.data 75959.387451                       # average ReadExReq mshr miss latency
system.l2cache.ReadExReq_avg_mshr_miss_latency::total 75959.387451                       # average ReadExReq mshr miss latency
system.l2cache.ReadSharedReq_hits::.cpu.inst         5473                       # number of ReadSharedReq hits
system.l2cache.ReadSharedReq_hits::.cpu.data       265803                       # number of ReadSharedReq hits
system.l2cache.ReadSharedReq_hits::total       271276                       # number of ReadSharedReq hits
system.l2cache.ReadSharedReq_misses::.cpu.inst         3295                       # number of ReadSharedReq misses
system.l2cache.ReadSharedReq_misses::.cpu.data         7218                       # number of ReadSharedReq misses
system.l2cache.ReadSharedReq_misses::total        10513                       # number of ReadSharedReq misses
system.l2cache.ReadSharedReq_miss_latency::.cpu.inst    332142000                       # number of ReadSharedReq miss cycles
system.l2cache.ReadSharedReq_miss_latency::.cpu.data    704852000                       # number of ReadSharedReq miss cycles
system.l2cache.ReadSharedReq_miss_latency::total   1036994000                       # number of ReadSharedReq miss cycles
system.l2cache.ReadSharedReq_accesses::.cpu.inst         8768                       # number of ReadSharedReq accesses(hits+misses)
system.l2cache.ReadSharedReq_accesses::.cpu.data       273021                       # number of ReadSharedReq accesses(hits+misses)
system.l2cache.ReadSharedReq_accesses::total       281789                       # number of ReadSharedReq accesses(hits+misses)
system.l2cache.ReadSharedReq_miss_rate::.cpu.inst     0.375798                       # miss rate for ReadSharedReq accesses
system.l2cache.ReadSharedReq_miss_rate::.cpu.data     0.026438                       # miss rate for ReadSharedReq accesses
system.l2cache.ReadSharedReq_miss_rate::total     0.037308                       # miss rate for ReadSharedReq accesses
system.l2cache.ReadSharedReq_avg_miss_latency::.cpu.inst 100801.820941                       # average ReadSharedReq miss latency
system.l2cache.ReadSharedReq_avg_miss_latency::.cpu.data 97651.981158                       # average ReadSharedReq miss latency
system.l2cache.ReadSharedReq_avg_miss_latency::total 98639.208599                       # average ReadSharedReq miss latency
system.l2cache.ReadSharedReq_mshr_misses::.cpu.inst         3295                       # number of ReadSharedReq MSHR misses
system.l2cache.ReadSharedReq_mshr_misses::.cpu.data         7218                       # number of ReadSharedReq MSHR misses
system.l2cache.ReadSharedReq_mshr_misses::total        10513                       # number of ReadSharedReq MSHR misses
system.l2cache.ReadSharedReq_mshr_miss_latency::.cpu.inst    266242000                       # number of ReadSharedReq MSHR miss cycles
system.l2cache.ReadSharedReq_mshr_miss_latency::.cpu.data    560492000                       # number of ReadSharedReq MSHR miss cycles
system.l2cache.ReadSharedReq_mshr_miss_latency::total    826734000                       # number of ReadSharedReq MSHR miss cycles
system.l2cache.ReadSharedReq_mshr_miss_rate::.cpu.inst     0.375798                       # mshr miss rate for ReadSharedReq accesses
system.l2cache.ReadSharedReq_mshr_miss_rate::.cpu.data     0.026438                       # mshr miss rate for ReadSharedReq accesses
system.l2cache.ReadSharedReq_mshr_miss_rate::total     0.037308                       # mshr miss rate for ReadSharedReq accesses
system.l2cache.ReadSharedReq_avg_mshr_miss_latency::.cpu.inst 80801.820941                       # average ReadSharedReq mshr miss latency
system.l2cache.ReadSharedReq_avg_mshr_miss_latency::.cpu.data 77651.981158                       # average ReadSharedReq mshr miss latency
system.l2cache.ReadSharedReq_avg_mshr_miss_latency::total 78639.208599                       # average ReadSharedReq mshr miss latency
system.l2cache.power_state.pwrStateResidencyTicks::UNDEFINED 103259811000                       # Cumulative time (in ticks) in various power states
system.l2cache.replacement_policy.totalBypasses          476                       # Total number of cache bypasses
system.l2cache.replacement_policy.effectiveBypasses            6                       # Bypasses that correctly skipped non-reused blocks
system.l2cache.replacement_policy.ineffectiveBypasses          371                       # Bypasses that incorrectly skipped requested blocks
system.l2cache.replacement_policy.virtualEffectiveBypasses           44                       # Virtual bypasses correctly predicting non-reused blocks
system.l2cache.replacement_policy.virtualIneffectiveBypasses         1438                       # Virtual bypasses incorrectly predicting requested blocks
system.l2cache.tags.tagsinuse            15872.926306                       # Cycle average of tags in use
system.l2cache.tags.total_refs                 799097                       # Total number of references to valid blocks.
system.l2cache.tags.sampled_refs                31229                       # Sample count of references to valid blocks.
system.l2cache.tags.avg_refs                25.588299                       # Average number of references to valid blocks.
system.l2cache.tags.warmup_cycle             15101000                       # Cycle when the warmup percentage was hit.
system.l2cache.tags.occ_blocks::.writebacks   152.140585                       # Average occupied blocks per requestor
system.l2cache.tags.occ_blocks::.cpu.inst   284.180453                       # Average occupied blocks per requestor
system.l2cache.tags.occ_blocks::.cpu.data 15436.605268                       # Average occupied blocks per requestor
system.l2cache.tags.occ_percent::.writebacks     0.009286                       # Average percentage of cache occupancy
system.l2cache.tags.occ_percent::.cpu.inst     0.017345                       # Average percentage of cache occupancy
system.l2cache.tags.occ_percent::.cpu.data     0.942176                       # Average percentage of cache occupancy
system.l2cache.tags.occ_percent::total       0.968807                       # Average percentage of cache occupancy
system.l2cache.tags.occ_task_id_blocks::1024        16384                       # Occupied blocks per task id
system.l2cache.tags.age_task_id_blocks_1024::0           56                       # Occupied blocks per task id
system.l2cache.tags.age_task_id_blocks_1024::1          126                       # Occupied blocks per task id
system.l2cache.tags.age_task_id_blocks_1024::2         1656                       # Occupied blocks per task id
system.l2cache.tags.age_task_id_blocks_1024::3          347                       # Occupied blocks per task id
system.l2cache.tags.age_task_id_blocks_1024::4        14199                       # Occupied blocks per task id
system.l2cache.tags.occ_task_id_percent::1024            1                       # Percentage of cache occupancy per task id
system.l2cache.tags.tag_accesses              6436077                       # Number of tag accesses
system.l2cache.tags.data_accesses             6436077                       # Number of data accesses
system.l2cache.tags.power_state.pwrStateResidencyTicks::UNDEFINED 103259811000                       # Cumulative time (in ticks) in various power states
system.mem_ctrl.avgPriority_.writebacks::samples      9776.00                       # Average QoS priority value for accepted requests
system.mem_ctrl.avgPriority_.cpu.inst::samples      3295.00                       # Average QoS priority value for accepted requests
system.mem_ctrl.avgPriority_.cpu.data::samples     27782.00                       # Average QoS priority value for accepted requests
system.mem_ctrl.priorityMinLatency       0.000000018750                       # per QoS priority minimum request to response latency (s)
system.mem_ctrl.priorityMaxLatency       0.018354675750                       # per QoS priority maximum request to response latency (s)
system.mem_ctrl.numReadWriteTurnArounds           561                       # Number of turnarounds from READ to WRITE
system.mem_ctrl.numWriteReadTurnArounds           561                       # Number of turnarounds from WRITE to READ
system.mem_ctrl.numStayReadState                98272                       # Number of times bus staying in READ state
system.mem_ctrl.numStayWriteState                9218                       # Number of times bus staying in WRITE state
system.mem_ctrl.readReqs                        31344                       # Number of read requests accepted
system.mem_ctrl.writeReqs                        9814                       # Number of write requests accepted
system.mem_ctrl.readBursts                      31344                       # Number of controller read bursts, including those serviced by the write queue
system.mem_ctrl.writeBursts                      9814                       # Number of controller write bursts, including those merged in the write queue
system.mem_ctrl.servicedByWrQ                     267                       # Number of controller read bursts serviced by the write queue
system.mem_ctrl.mergedWrBursts                     38                       # Number of controller write bursts merged with an existing one
system.mem_ctrl.neitherReadNorWriteReqs             0                       # Number of requests that are neither read nor write
system.mem_ctrl.avgRdQLen                        1.00                       # Average read queue length when enqueuing
system.mem_ctrl.avgWrQLen                       23.79                       # Average write queue length when enqueuing
system.mem_ctrl.numRdRetry                          0                       # Number of times read queue was full causing retry
system.mem_ctrl.numWrRetry                          0                       # Number of times write queue was full causing retry
system.mem_ctrl.readPktSize::0                      0                       # Read request sizes (log2)
system.mem_ctrl.readPktSize::1                      0                       # Read request sizes (log2)
system.mem_ctrl.readPktSize::2                      0                       # Read request sizes (log2)
system.mem_ctrl.readPktSize::3                      0                       # Read request sizes (log2)
system.mem_ctrl.readPktSize::4                      0                       # Read request sizes (log2)
system.mem_ctrl.readPktSize::5                      0                       # Read request sizes (log2)
system.mem_ctrl.readPktSize::6                  31344                       # Read request sizes (log2)
system.mem_ctrl.writePktSize::0                     0                       # Write request sizes (log2)
system.mem_ctrl.writePktSize::1                     0                       # Write request sizes (log2)
system.mem_ctrl.writePktSize::2                     0                       # Write request sizes (log2)
system.mem_ctrl.writePktSize::3                     0                       # Write request sizes (log2)
system.mem_ctrl.writePktSize::4                     0                       # Write request sizes (log2)
system.mem_ctrl.writePktSize::5                     0                       # Write request sizes (log2)
system.mem_ctrl.writePktSize::6                  9814                       # Write request sizes (log2)
system.mem_ctrl.rdQLenPdf::0                    31075                       # What read queue length does an incoming req see
system.mem_ctrl.rdQLenPdf::1                        2                       # What read queue length does an incoming req see
system.mem_ctrl.rdQLenPdf::2                        0                       # What read queue length does an incoming req see
system.mem_ctrl.rdQLenPdf::3                        0                       # What read queue length does an incoming req see
system.mem_ctrl.rdQLenPdf::4                        0                       # What read queue length does an incoming req see
system.mem_ctrl.rdQLenPdf::5                        0                       # What read queue length does an incoming req see
system.mem_ctrl.rdQLenPdf::6                        0                       # What read queue length does an incoming req see
system.mem_ctrl.rdQLenPdf::7                        0                       # What read queue length does an incoming req see
system.mem_ctrl.rdQLenPdf::8                        0                       # What read queue length does an incoming req see
system.mem_ctrl.rdQLenPdf::9                        0                       # What read queue length does an incoming req see
system.mem_ctrl.rdQLenPdf::10                       0                       # What read queue length does an incoming req see
system.mem_ctrl.rdQLenPdf::11                       0                       # What read queue length does an incoming req see
system.mem_ctrl.rdQLenPdf::12                       0                       # What read queue length does an incoming req see
system.mem_ctrl.rdQLenPdf::13                       0                       # What read queue length does an incoming req see
system.mem_ctrl.rdQLenPdf::14                       0                       # What read queue length does an incoming req see
system.mem_ctrl.rdQLenPdf::15                       0                       # What read queue length does an incoming req see
system.mem_ctrl.rdQLenPdf::16                       0                       # What read queue length does an incoming req see
system.mem_ctrl.rdQLenPdf::17                       0                       # What read queue length does an incoming req see
system.mem_ctrl.rdQLenPdf::18                       0                       # What read queue length does an incoming req see
system.mem_ctrl.rdQLenPdf::19                       0                       # What read queue length does an incoming req see
system.mem_ctrl.rdQLenPdf::20                       0                       # What read queue length does an incoming req see
system.mem_ctrl.rdQLenPdf::21                       0                       # What read queue length does an incoming req see
system.mem_ctrl.rdQLenPdf::22                       0                       # What read queue length does an incoming req see
system.mem_ctrl.rdQLenPdf::23                       0                       # What read queue length does an incoming req see
system.mem_ctrl.rdQLenPdf::24                       0                       # What read queue length does an incoming req see
system.mem_ctrl.rdQLenPdf::25                       0                       # What read queue length does an incoming req see
system.mem_ctrl.rdQLenPdf::26                       0                       # What read queue length does an incoming req see
system.mem_ctrl.rdQLenPdf::27                       0                       # What read queue length does an incoming req see
system.mem_ctrl.rdQLenPdf::28                       0                       # What read queue length does an incoming req see
system.mem_ctrl.rdQLenPdf::29                       0                       # What read queue length does an incoming req see
system.mem_ctrl.rdQLenPdf::30                       0                       # What read queue length does an incoming req see
system.mem_ctrl.rdQLenPdf::31                       0                       # What read queue length does an incoming req see
system.mem_ctrl.wrQLenPdf::0                        1                       # What write queue length does an incoming req see
system.mem_ctrl.wrQLenPdf::1                        1                       # What write queue length does an incoming req see
system.mem_ctrl.wrQLenPdf::2                        1                       # What write queue length does an incoming req see
system.mem_ctrl.wrQLenPdf::3                        1                       # What write queue length does an incoming req see
system.mem_ctrl.wrQLenPdf::4                        1                       # What write queue length does an incoming req see
system.mem_ctrl.wrQLenPdf::5                        1                       # What write queue length does an incoming req see
system.mem_ctrl.wrQLenPdf::6                        1                       # What write queue length does an incoming req see
system.mem_ctrl.wrQLenPdf::7                        1                       # What write queue length does an incoming req see
system.mem_ctrl.wrQLenPdf::8                        1                       # What write queue length does an incoming req see
system.mem_ctrl.wrQLenPdf::9                        1                       # What write queue length does an incoming req see
system.mem_ctrl.wrQLenPdf::10                       1                       # What write queue length does an incoming req see
system.mem_ctrl.wrQLenPdf::11                       1                       # What write queue length does an incoming req see
system.mem_ctrl.wrQLenPdf::12                       1                       # What write queue length does an incoming req see
system.mem_ctrl.wrQLenPdf::13                       1                       # What write queue length does an incoming req see
system.mem_ctrl.wrQLenPdf::14                       1                       # What write queue length does an incoming req see
system.mem_ctrl.wrQLenPdf::15                     384                       # What write queue length does an incoming req see
system.mem_ctrl.wrQLenPdf::16                     396                       # What write queue length does an incoming req see
system.mem_ctrl.wrQLenPdf::17                     561                       # What write queue length does an incoming req see
system.mem_ctrl.wrQLenPdf::18                     562                       # What write queue length does an incoming req see
system.mem_ctrl.wrQLenPdf::19                     562                       # What write queue length does an incoming req see
system.mem_ctrl.wrQLenPdf::20                     563                       # What write queue length does an incoming req see
system.mem_ctrl.wrQLenPdf::21                     561                       # What write queue length does an incoming req see
system.mem_ctrl.wrQLenPdf::22                     561                       # What write queue length does an incoming req see
system.mem_ctrl.wrQLenPdf::23                     562                       # What write queue length does an incoming req see
system.mem_ctrl.wrQLenPdf::24                     561                       # What write queue length does an incoming req see
system.mem_ctrl.wrQLenPdf::25                     561                       # What write queue length does an incoming req see
system.mem_ctrl.wrQLenPdf::26                     561                       # What write queue length does an incoming req see
system.mem_ctrl.wrQLenPdf::27                     561                       # What write queue length does an incoming req see
system.mem_ctrl.wrQLenPdf::28                     561                       # What write queue length does an incoming req see
system.mem_ctrl.wrQLenPdf::29                     561                       # What write queue length does an incoming req see
system.mem_ctrl.wrQLenPdf::30                     561                       # What write queue length does an incoming req see
system.mem_ctrl.wrQLenPdf::31                     561                       # What write queue length does an incoming req see
system.mem_ctrl.wrQLenPdf::32                     561                       # What write queue length does an incoming req see
system.mem_ctrl.wrQLenPdf::33                       0                       # What write queue length does an incoming req see
system.mem_ctrl.wrQLenPdf::34                       0                       # What write queue length does an incoming req see
system.mem_ctrl.wrQLenPdf::35                       0                       # What write queue length does an incoming req see
system.mem_ctrl.wrQLenPdf::36                       0                       # What write queue length does an incoming req see
system.mem_ctrl.wrQLenPdf::37                       0                       # What write queue length does an incoming req see
system.mem_ctrl.wrQLenPdf::38                       0                       # What write queue length does an incoming req see
system.mem_ctrl.wrQLenPdf::39                       0                       # What write queue length does an incoming req see
system.mem_ctrl.wrQLenPdf::40                       0                       # What write queue length does an incoming req see
system.mem_ctrl.wrQLenPdf::41                       0                       # What write queue length does an incoming req see
system.mem_ctrl.wrQLenPdf::42                       0                       # What write queue length does an incoming req see
system.mem_ctrl.wrQLenPdf::43                       0                       # What write queue length does an incoming req see
system.mem_ctrl.wrQLenPdf::44                       0                       # What write queue length does an incoming req see
system.mem_ctrl.wrQLenPdf::45                       0                       # What write queue length does an incoming req see
system.mem_ctrl.wrQLenPdf::46                       0                       # What write queue length does an incoming req see
system.mem_ctrl.wrQLenPdf::47                       0                       # What write queue length does an incoming req see
system.mem_ctrl.wrQLenPdf::48                       0                       # What write queue length does an incoming req see
system.mem_ctrl.wrQLenPdf::49                       0                       # What write queue length does an incoming req see
system.mem_ctrl.wrQLenPdf::50                       0                       # What write queue length does an incoming req see
system.mem_ctrl.wrQLenPdf::51                       0                       # What write queue length does an incoming req see
system.mem_ctrl.wrQLenPdf::52                       0                       # What write queue length does an incoming req see
system.mem_ctrl.wrQLenPdf::53                       0                       # What write queue length does an incoming req see
system.mem_ctrl.wrQLenPdf::54                       0                       # What write queue length does an incoming req see
system.mem_ctrl.wrQLenPdf::55                       0                       # What write queue length does an incoming req see
system.mem_ctrl.wrQLenPdf::56                       0                       # What write queue length does an incoming req see
system.mem_ctrl.wrQLenPdf::57                       0                       # What write queue length does an incoming req see
system.mem_ctrl.wrQLenPdf::58                       0                       # What write queue length does an incoming req see
system.mem_ctrl.wrQLenPdf::59                       0                       # What write queue length does an incoming req see
system.mem_ctrl.wrQLenPdf::60                       0                       # What write queue length does an incoming req see
system.mem_ctrl.wrQLenPdf::61                       0                       # What write queue length does an incoming req see
system.mem_ctrl.wrQLenPdf::62                       0                       # What write queue length does an incoming req see
system.mem_ctrl.wrQLenPdf::63                       0                       # What write queue length does an incoming req see
system.mem_ctrl.rdPerTurnAround::samples          561                       # Reads before turning the bus around for writes
system.mem_ctrl.rdPerTurnAround::mean       55.388592                       # Reads before turning the bus around for writes
system.mem_ctrl.rdPerTurnAround::gmean      22.867849                       # Reads before turning the bus around for writes
system.mem_ctrl.rdPerTurnAround::stdev     578.581154                       # Reads before turning the bus around for writes
system.mem_ctrl.rdPerTurnAround::0-511            559     99.64%     99.64% # Reads before turning the bus around for writes
system.mem_ctrl.rdPerTurnAround::1024-1535            1      0.18%     99.82% # Reads before turning the bus around for writes
system.mem_ctrl.rdPerTurnAround::13312-13823            1      0.18%    100.00% # Reads before turning the bus around for writes
system.mem_ctrl.rdPerTurnAround::total            561                       # Reads before turning the bus around for writes
system.mem_ctrl.wrPerTurnAround::samples          561                       # Writes before turning the bus around for reads
system.mem_ctrl.wrPerTurnAround::mean       17.388592                       # Writes before turning the bus around for reads
system.mem_ctrl.wrPerTurnAround::gmean      17.363902                       # Writes before turning the bus around for reads
system.mem_ctrl.wrPerTurnAround::stdev       0.913477                       # Writes before turning the bus around for reads
system.mem_ctrl.wrPerTurnAround::16               166     29.59%     29.59% # Writes before turning the bus around for reads
system.mem_ctrl.wrPerTurnAround::17                12      2.14%     31.73% # Writes before turning the bus around for reads
system.mem_ctrl.wrPerTurnAround::18               382     68.09%     99.82% # Writes before turning the bus around for reads
system.mem_ctrl.wrPerTurnAround::19                 1      0.18%    100.00% # Writes before turning the bus around for reads
system.mem_ctrl.wrPerTurnAround::total            561                       # Writes before turning the bus around for reads
system.mem_ctrl.bytesReadWrQ                    17088                       # Total number of bytes read from write queue
system.mem_ctrl.bytesReadSys                  2006016                       # Total read bytes from the system interface side
system.mem_ctrl.bytesWrittenSys                628096                       # Total written bytes from the system interface side
system.mem_ctrl.avgRdBWSys                      19.43                       # Average system read bandwidth in MiByte/s
system.mem_ctrl.avgWrBWSys                       6.08                       # Average system write bandwidth in MiByte/s
system.mem_ctrl.totGap                   103259773000                       # Total gap between requests
system.mem_ctrl.avgGap                     2508862.75                       # Average gap between requests
system.mem_ctrl.requestorReadBytes::.cpu.inst       210880                       # Per-requestor bytes read from memory
system.mem_ctrl.requestorReadBytes::.cpu.data      1778048                       # Per-requestor bytes read from memory
system.mem_ctrl.requestorWriteBytes::.writebacks       624320                       # Per-requestor bytes write to memory
system.mem_ctrl.requestorReadRate::.cpu.inst 2042227.251413427293                       # Per-requestor bytes read from memory rate (Bytes/sec)
system.mem_ctrl.requestorReadRate::.cpu.data 17219167.677926506847                       # Per-requestor bytes read from memory rate (Bytes/sec)
system.mem_ctrl.requestorWriteRate::.writebacks 6046108.296673135832                       # Per-requestor bytes write to memory rate (Bytes/sec)
system.mem_ctrl.requestorReadAccesses::.cpu.inst         3295                       # Per-requestor read serviced memory accesses
system.mem_ctrl.requestorReadAccesses::.cpu.data        28049                       # Per-requestor read serviced memory accesses
system.mem_ctrl.requestorWriteAccesses::.writebacks         9814                       # Per-requestor write serviced memory accesses
system.mem_ctrl.requestorReadTotalLat::.cpu.inst     97079750                       # Per-requestor read total memory access latency
system.mem_ctrl.requestorReadTotalLat::.cpu.data    706893500                       # Per-requestor read total memory access latency
system.mem_ctrl.requestorWriteTotalLat::.writebacks 2382170420000                       # Per-requestor write total memory access latency
system.mem_ctrl.requestorReadAvgLat::.cpu.inst     29462.75                       # Per-requestor read average memory access latency
system.mem_ctrl.requestorReadAvgLat::.cpu.data     25202.09                       # Per-requestor read average memory access latency
system.mem_ctrl.requestorWriteAvgLat::.writebacks 242731854.49                       # Per-requestor write average memory access latency
system.mem_ctrl.dram.bytes_read::.cpu.inst       210880                       # Number of bytes read from this memory
system.mem_ctrl.dram.bytes_read::.cpu.data      1795136                       # Number of bytes read from this memory
system.mem_ctrl.dram.bytes_read::total        2006016                       # Number of bytes read from this memory
system.mem_ctrl.dram.bytes_inst_read::.cpu.inst       210880                       # Number of instructions bytes read from this memory
system.mem_ctrl.dram.bytes_inst_read::total       210880                       # Number of instructions bytes read from this memory
system.mem_ctrl.dram.bytes_written::.writebacks       628096                       # Number of bytes written to this memory
system.mem_ctrl.dram.bytes_written::total       628096                       # Number of bytes written to this memory
system.mem_ctrl.dram.num_reads::.cpu.inst         3295                       # Number of read requests responded to by this memory
system.mem_ctrl.dram.num_reads::.cpu.data        28049                       # Number of read requests responded to by this memory
system.mem_ctrl.dram.num_reads::total           31344                       # Number of read requests responded to by this memory
system.mem_ctrl.dram.num_writes::.writebacks         9814                       # Number of write requests responded to by this memory
system.mem_ctrl.dram.num_writes::total           9814                       # Number of write requests responded to by this memory
system.mem_ctrl.dram.bw_read::.cpu.inst       2042227                       # Total read bandwidth from this memory (bytes/s)
system.mem_ctrl.dram.bw_read::.cpu.data      17384653                       # Total read bandwidth from this memory (bytes/s)
system.mem_ctrl.dram.bw_read::total          19426880                       # Total read bandwidth from this memory (bytes/s)
system.mem_ctrl.dram.bw_inst_read::.cpu.inst      2042227                       # Instruction read bandwidth from this memory (bytes/s)
system.mem_ctrl.dram.bw_inst_read::total      2042227                       # Instruction read bandwidth from this memory (bytes/s)
system.mem_ctrl.dram.bw_write::.writebacks      6082676                       # Write bandwidth from this memory (bytes/s)
system.mem_ctrl.dram.bw_write::total          6082676                       # Write bandwidth from this memory (bytes/s)
system.mem_ctrl.dram.bw_total::.writebacks      6082676                       # Total bandwidth to/from this memory (bytes/s)
system.mem_ctrl.dram.bw_total::.cpu.inst      2042227                       # Total bandwidth to/from this memory (bytes/s)
system.mem_ctrl.dram.bw_total::.cpu.data     17384653                       # Total bandwidth to/from this memory (bytes/s)
system.mem_ctrl.dram.bw_total::total         25509557                       # Total bandwidth to/from this memory (bytes/s)
system.mem_ctrl.dram.readBursts                 31077                       # Number of DRAM read bursts
system.mem_ctrl.dram.writeBursts                 9755                       # Number of DRAM write bursts
system.mem_ctrl.dram.perBankRdBursts::0          1721                       # Per bank write bursts
system.mem_ctrl.dram.perBankRdBursts::1          1915                       # Per bank write bursts
system.mem_ctrl.dram.perBankRdBursts::2          1694                       # Per bank write bursts
system.mem_ctrl.dram.perBankRdBursts::3          2853                       # Per bank write bursts
system.mem_ctrl.dram.perBankRdBursts::4          4504                       # Per bank write bursts
system.mem_ctrl.dram.perBankRdBursts::5          2566                       # Per bank write bursts
system.mem_ctrl.dram.perBankRdBursts::6          1181                       # Per bank write bursts
system.mem_ctrl.dram.perBankRdBursts::7          1450                       # Per bank write bursts
system.mem_ctrl.dram.perBankRdBursts::8          1586                       # Per bank write bursts
system.mem_ctrl.dram.perBankRdBursts::9          2097                       # Per bank write bursts
system.mem_ctrl.dram.perBankRdBursts::10         1637                       # Per bank write bursts
system.mem_ctrl.dram.perBankRdBursts::11         1637                       # Per bank write bursts
system.mem_ctrl.dram.perBankRdBursts::12         1849                       # Per bank write bursts
system.mem_ctrl.dram.perBankRdBursts::13         1703                       # Per bank write bursts
system.mem_ctrl.dram.perBankRdBursts::14         1459                       # Per bank write bursts
system.mem_ctrl.dram.perBankRdBursts::15         1225                       # Per bank write bursts
system.mem_ctrl.dram.perBankWrBursts::0           442                       # Per bank write bursts
system.mem_ctrl.dram.perBankWrBursts::1           545                       # Per bank write bursts
system.mem_ctrl.dram.perBankWrBursts::2           414                       # Per bank write bursts
system.mem_ctrl.dram.perBankWrBursts::3          1098                       # Per bank write bursts
system.mem_ctrl.dram.perBankWrBursts::4          2173                       # Per bank write bursts
system.mem_ctrl.dram.perBankWrBursts::5           930                       # Per bank write bursts
system.mem_ctrl.dram.perBankWrBursts::6            83                       # Per bank write bursts
system.mem_ctrl.dram.perBankWrBursts::7           298                       # Per bank write bursts
system.mem_ctrl.dram.perBankWrBursts::8           378                       # Per bank write bursts
system.mem_ctrl.dram.perBankWrBursts::9           708                       # Per bank write bursts
system.mem_ctrl.dram.perBankWrBursts::10          438                       # Per bank write bursts
system.mem_ctrl.dram.perBankWrBursts::11          506                       # Per bank write bursts
system.mem_ctrl.dram.perBankWrBursts::12          679                       # Per bank write bursts
system.mem_ctrl.dram.perBankWrBursts::13          551                       # Per bank write bursts
system.mem_ctrl.dram.perBankWrBursts::14          340                       # Per bank write bursts
system.mem_ctrl.dram.perBankWrBursts::15          172                       # Per bank write bursts
system.mem_ctrl.dram.totQLat                221279500                       # Total ticks spent queuing
system.mem_ctrl.dram.totBusLat              155385000                       # Total ticks spent in databus transfers
system.mem_ctrl.dram.totMemAccLat           803973250                       # Total ticks spent from burst creation until serviced by the DRAM
system.mem_ctrl.dram.avgQLat                  7120.36                       # Average queueing delay per DRAM burst
system.mem_ctrl.dram.avgBusLat                5000.00                       # Average bus latency per DRAM burst
system.mem_ctrl.dram.avgMemAccLat            25870.36                       # Average memory access latency per DRAM burst
system.mem_ctrl.dram.readRowHits                25494                       # Number of row buffer hits during reads
system.mem_ctrl.dram.writeRowHits                7842                       # Number of row buffer hits during writes
system.mem_ctrl.dram.readRowHitRate             82.03                       # Row buffer hit rate for reads
system.mem_ctrl.dram.writeRowHitRate            80.39                       # Row buffer hit rate for writes
system.mem_ctrl.dram.bytesPerActivate::samples         7485                       # Bytes accessed per row activation
system.mem_ctrl.dram.bytesPerActivate::mean   348.909018                       # Bytes accessed per row activation
system.mem_ctrl.dram.bytesPerActivate::gmean   228.629591                       # Bytes accessed per row activation
system.mem_ctrl.dram.bytesPerActivate::stdev   310.963189                       # Bytes accessed per row activation
system.mem_ctrl.dram.bytesPerActivate::0-127         1804     24.10%     24.10% # Bytes accessed per row activation
system.mem_ctrl.dram.bytesPerActivate::128-255         1920     25.65%     49.75% # Bytes accessed per row activation
system.mem_ctrl.dram.bytesPerActivate::256-383          973     13.00%     62.75% # Bytes accessed per row activation
system.mem_ctrl.dram.bytesPerActivate::384-511          587      7.84%     70.59% # Bytes accessed per row activation
system.mem_ctrl.dram.bytesPerActivate::512-639          924     12.34%     82.94% # Bytes accessed per row activation
system.mem_ctrl.dram.bytesPerActivate::640-767          181      2.42%     85.36% # Bytes accessed per row activation
system.mem_ctrl.dram.bytesPerActivate::768-895          165      2.20%     87.56% # Bytes accessed per row activation
system.mem_ctrl.dram.bytesPerActivate::896-1023          121      1.62%     89.18% # Bytes accessed per row activation
system.mem_ctrl.dram.bytesPerActivate::1024-1151          810     10.82%    100.00% # Bytes accessed per row activation
system.mem_ctrl.dram.bytesPerActivate::total         7485                       # Bytes accessed per row activation
system.mem_ctrl.dram.bytesRead                1988928                       # Total number of bytes read from DRAM
system.mem_ctrl.dram.bytesWritten              624320                       # Total number of bytes written to DRAM
system.mem_ctrl.dram.avgRdBW                19.261395                       # Average DRAM read bandwidth in MiBytes/s
system.mem_ctrl.dram.avgWrBW                 6.046108                       # Average DRAM write bandwidth in MiBytes/s
system.mem_ctrl.dram.peakBW                  12800.00                       # Theoretical peak bandwidth in MiByte/s
system.mem_ctrl.dram.busUtil                     0.20                       # Data bus utilization in percentage
system.mem_ctrl.dram.busUtilRead                 0.15                       # Data bus utilization in percentage for reads
system.mem_ctrl.dram.busUtilWrite                0.05                       # Data bus utilization in percentage for writes
system.mem_ctrl.dram.pageHitRate                81.64                       # Row buffer hit rate, read and write combined
system.mem_ctrl.dram.power_state.pwrStateResidencyTicks::UNDEFINED 103259811000                       # Cumulative time (in ticks) in various power states
system.mem_ctrl.dram.rank0.actEnergy         33079620                       # Energy for activate commands per rank (pJ)
system.mem_ctrl.dram.rank0.preEnergy         17559465                       # Energy for precharge commands per rank (pJ)
system.mem_ctrl.dram.rank0.readEnergy       127691760                       # Energy for read commands per rank (pJ)
system.mem_ctrl.dram.rank0.writeEnergy       31231260                       # Energy for write commands per rank (pJ)
system.mem_ctrl.dram.rank0.refreshEnergy 8150741040.000001                       # Energy for refresh commands per rank (pJ)
system.mem_ctrl.dram.rank0.actBackEnergy   6949662300                       # Energy for active background per rank (pJ)
system.mem_ctrl.dram.rank0.preBackEnergy  33799420320                       # Energy for precharge background per rank (pJ)
system.mem_ctrl.dram.rank0.actPowerDownEnergy            0                       # Energy for active power-down per rank (pJ)
system.mem_ctrl.dram.rank0.prePowerDownEnergy            0                       # Energy for precharge power-down per rank (pJ)
system.mem_ctrl.dram.rank0.selfRefreshEnergy            0                       # Energy for self refresh per rank (pJ)
system.mem_ctrl.dram.rank0.totalEnergy    49109385765                       # Total energy per rank (pJ)
system.mem_ctrl.dram.rank0.averagePower    475.590506                       # Core power per rank (mW)
system.mem_ctrl.dram.rank0.totalIdleTime            0                       # Total Idle time Per DRAM Rank
system.mem_ctrl.dram.rank0.pwrStateTime::IDLE  87801708250                       # Time in different power states
system.mem_ctrl.dram.rank0.pwrStateTime::REF   3447860000                       # Time in different power states
system.mem_ctrl.dram.rank0.pwrStateTime::SREF            0                       # Time in different power states
system.mem_ctrl.dram.rank0.pwrStateTime::PRE_PDN            0                       # Time in different power states
system.mem_ctrl.dram.rank0.pwrStateTime::ACT  12010242750                       # Time in different power states
system.mem_ctrl.dram.rank0.pwrStateTime::ACT_PDN            0                       # Time in different power states
system.mem_ctrl.dram.rank1.actEnergy         20441820                       # Energy for activate commands per rank (pJ)
system.mem_ctrl.dram.rank1.preEnergy         10846110                       # Energy for precharge commands per rank (pJ)
system.mem_ctrl.dram.rank1.readEnergy        94198020                       # Energy for read commands per rank (pJ)
system.mem_ctrl.dram.rank1.writeEnergy       19689840                       # Energy for write commands per rank (pJ)
system.mem_ctrl.dram.rank1.refreshEnergy 8150741040.000001                       # Energy for refresh commands per rank (pJ)
system.mem_ctrl.dram.rank1.actBackEnergy   4793384790                       # Energy for active background per rank (pJ)
system.mem_ctrl.dram.rank1.preBackEnergy  35615232960                       # Energy for precharge background per rank (pJ)
system.mem_ctrl.dram.rank1.actPowerDownEnergy            0                       # Energy for active power-down per rank (pJ)
system.mem_ctrl.dram.rank1.prePowerDownEnergy            0                       # Energy for precharge power-down per rank (pJ)
system.mem_ctrl.dram.rank1.selfRefreshEnergy            0                       # Energy for self refresh per rank (pJ)
system.mem_ctrl.dram.rank1.totalEnergy    48704534580                       # Total energy per rank (pJ)
system.mem_ctrl.dram.rank1.averagePower    471.669802                       # Core power per rank (mW)
system.mem_ctrl.dram.rank1.totalIdleTime            0                       # Total Idle time Per DRAM Rank
system.mem_ctrl.dram.rank1.pwrStateTime::IDLE  92543342250                       # Time in different power states
system.mem_ctrl.dram.rank1.pwrStateTime::REF   3447860000                       # Time in different power states
system.mem_ctrl.dram.rank1.pwrStateTime::SREF            0                       # Time in different power states
system.mem_ctrl.dram.rank1.pwrStateTime::PRE_PDN            0                       # Time in different power states
system.mem_ctrl.dram.rank1.pwrStateTime::ACT   7268608750                       # Time in different power states
system.mem_ctrl.dram.rank1.pwrStateTime::ACT_PDN            0                       # Time in different power states
system.mem_ctrl.power_state.pwrStateResidencyTicks::UNDEFINED 103259811000                       # Cumulative time (in ticks) in various power states
system.membus.trans_dist::ReadResp              10513                       # Transaction distribution
system.membus.trans_dist::WritebackDirty         9814                       # Transaction distribution
system.membus.trans_dist::CleanEvict             5139                       # Transaction distribution
system.membus.trans_dist::ReadExReq             20831                       # Transaction distribution
system.membus.trans_dist::ReadExResp            20831                       # Transaction distribution
system.membus.trans_dist::ReadSharedReq         10513                       # Transaction distribution
system.membus.pkt_count_system.l2cache.mem_side_port::system.mem_ctrl.port        77641                       # Packet count per connected requestor and responder (bytes)
system.membus.pkt_count_system.l2cache.mem_side_port::total        77641                       # Packet count per connected requestor and responder (bytes)
system.membus.pkt_count::total                  77641                       # Packet count per connected requestor and responder (bytes)
system.membus.pkt_size_system.l2cache.mem_side_port::system.mem_ctrl.port      2634112                       # Cumulative packet size per connected requestor and responder (bytes)
system.membus.pkt_size_system.l2cache.mem_side_port::total      2634112                       # Cumulative packet size per connected requestor and responder (bytes)
system.membus.pkt_size::total                 2634112                       # Cumulative packet size per connected requestor and responder (bytes)
system.membus.snoops                                0                       # Total snoops (count)
system.membus.snoopTraffic                          0                       # Total snoop traffic (bytes)
system.membus.snoop_fanout::samples             31344                       # Request fanout histogram
system.membus.snoop_fanout::mean                    0                       # Request fanout histogram
system.membus.snoop_fanout::stdev                   0                       # Request fanout histogram
system.membus.snoop_fanout::underflows              0      0.00%      0.00% # Request fanout histogram
system.membus.snoop_fanout::0                   31344    100.00%    100.00% # Request fanout histogram
system.membus.snoop_fanout::1                       0      0.00%    100.00% # Request fanout histogram
system.membus.snoop_fanout::overflows               0      0.00%    100.00% # Request fanout histogram
system.membus.snoop_fanout::min_value               0                       # Request fanout histogram
system.membus.snoop_fanout::max_value               0                       # Request fanout histogram
system.membus.snoop_fanout::total               31344                       # Request fanout histogram
system.membus.power_state.pwrStateResidencyTicks::UNDEFINED 103259811000                       # Cumulative time (in ticks) in various power states
system.membus.reqLayer2.occupancy            85553000                       # Layer occupancy (ticks)
system.membus.reqLayer2.utilization               0.1                       # Layer utilization (%)
system.membus.respLayer0.occupancy          165915750                       # Layer occupancy (ticks)
system.membus.respLayer0.utilization              0.2                       # Layer utilization (%)

---------- End Simulation Statistics   ----------
