
---------- Begin Simulation Statistics ----------
final_tick                               128188158000                       # Number of ticks from beginning of simulation (restored from checkpoints and never reset)
host_inst_rate                                 502129                       # Simulator instruction rate (inst/s)
host_mem_usage                                 647364                       # Number of bytes of host memory used
host_op_rate                                   867504                       # Simulator op (including micro ops) rate (op/s)
host_seconds                                    62.06                       # Real time elapsed on the host
host_tick_rate                             2065484713                       # Simulator tick rate (ticks/s)
sim_freq                                 1000000000000                       # Frequency of simulated ticks
sim_insts                                    31163054                       # Number of instructions simulated
sim_ops                                      53838990                       # Number of ops (including micro ops) simulated
sim_seconds                                  0.128188                       # Number of seconds simulated
sim_ticks                                128188158000                       # Number of ticks simulated
system.cpu.Branches                           3147847                       # Number of branches fetched
system.cpu.committedInsts                    31163054                       # Number of instructions committed
system.cpu.committedOps                      53838990                       # Number of ops (including micro ops) committed
system.cpu.idle_fraction                     0.000000                       # Percentage of idle cycles
system.cpu.not_idle_fraction                 1.000000                       # Percentage of non-idle cycles
system.cpu.numCycles                        128188158                       # number of cpu cycles simulated
system.cpu.numWorkItemsCompleted                    0                       # number of work items this cpu completed
system.cpu.numWorkItemsStarted                      0                       # number of work items this cpu started
system.cpu.num_busy_cycles               128188157.999000                       # Number of busy cycles
system.cpu.num_cc_register_reads             14821816                       # number of times the CC registers were read
system.cpu.num_cc_register_writes            15871093                       # number of times the CC registers were written
system.cpu.num_conditional_control_insts      2621497                       # number of instructions that are conditional controls
system.cpu.num_fp_alu_accesses               17960391                       # Number of float alu accesses
system.cpu.num_fp_insts                      17960391                       # number of float instructions
system.cpu.num_fp_register_reads             32379963                       # number of times the floating registers were read
system.cpu.num_fp_register_writes            16583137                       # number of times the floating registers were written
system.cpu.num_func_calls                      525556                       # number of times a function call or return occured
system.cpu.num_idle_cycles                   0.001000                       # Number of idle cycles
system.cpu.num_int_alu_accesses              39666028                       # Number of integer alu accesses
system.cpu.num_int_insts                     39666028                       # number of integer instructions
system.cpu.num_int_register_reads            74188977                       # number of times the integer registers were read
system.cpu.num_int_register_writes           30192752                       # number of times the integer registers were written
system.cpu.num_load_insts                     6721547                       # Number of load instructions
system.cpu.num_mem_refs                      10374034                       # number of memory refs
system.cpu.num_store_insts                    3652487                       # Number of store instructions
system.cpu.num_vec_alu_accesses                     0                       # Number of vector alu accesses
system.cpu.num_vec_insts                            0                       # number of vector instructions
system.cpu.num_vec_register_reads                   0                       # number of times the vector registers were read
system.cpu.num_vec_register_writes                  0                       # number of times the vector registers were written
system.cpu.op_class::No_OpClass                277415      0.52%      0.52% # Class of executed instruction
system.cpu.op_class::IntAlu                  29881521     55.50%     56.02% # Class of executed instruction
system.cpu.op_class::IntMult                       28      0.00%     56.02% # Class of executed instruction
system.cpu.op_class::IntDiv                       182      0.00%     56.02% # Class of executed instruction
system.cpu.op_class::FloatAdd                 1573060      2.92%     58.94% # Class of executed instruction
system.cpu.op_class::FloatCmp                       0      0.00%     58.94% # Class of executed instruction
system.cpu.op_class::FloatCvt                       0      0.00%     58.94% # Class of executed instruction
system.cpu.op_class::FloatMult                      0      0.00%     58.94% # Class of executed instruction
system.cpu.op_class::FloatMultAcc                   0      0.00%     58.94% # Class of executed instruction
system.cpu.op_class::FloatDiv                       0      0.00%     58.94% # Class of executed instruction
system.cpu.op_class::FloatMisc                      0      0.00%     58.94% # Class of executed instruction
system.cpu.op_class::FloatSqrt                      0      0.00%     58.94% # Class of executed instruction
system.cpu.op_class::SimdAdd                    32770      0.06%     59.00% # Class of executed instruction
system.cpu.op_class::SimdAddAcc                     0      0.00%     59.00% # Class of executed instruction
system.cpu.op_class::SimdAlu                  2097654      3.90%     62.90% # Class of executed instruction
system.cpu.op_class::SimdCmp                        6      0.00%     62.90% # Class of executed instruction
system.cpu.op_class::SimdCvt                    33224      0.06%     62.96% # Class of executed instruction
system.cpu.op_class::SimdMisc                 2163418      4.02%     66.98% # Class of executed instruction
system.cpu.op_class::SimdMult                       0      0.00%     66.98% # Class of executed instruction
system.cpu.op_class::SimdMultAcc                    0      0.00%     66.98% # Class of executed instruction
system.cpu.op_class::SimdShift                      6      0.00%     66.98% # Class of executed instruction
system.cpu.op_class::SimdShiftAcc                   0      0.00%     66.98% # Class of executed instruction
system.cpu.op_class::SimdDiv                        0      0.00%     66.98% # Class of executed instruction
system.cpu.op_class::SimdSqrt                       0      0.00%     66.98% # Class of executed instruction
system.cpu.op_class::SimdFloatAdd             1769545      3.29%     70.26% # Class of executed instruction
system.cpu.op_class::SimdFloatAlu                   0      0.00%     70.26% # Class of executed instruction
system.cpu.op_class::SimdFloatCmp                   0      0.00%     70.26% # Class of executed instruction
system.cpu.op_class::SimdFloatCvt             2162696      4.02%     74.28% # Class of executed instruction
system.cpu.op_class::SimdFloatDiv                   2      0.00%     74.28% # Class of executed instruction
system.cpu.op_class::SimdFloatMisc                  0      0.00%     74.28% # Class of executed instruction
system.cpu.op_class::SimdFloatMult            3473479      6.45%     80.73% # Class of executed instruction
system.cpu.op_class::SimdFloatMultAcc               0      0.00%     80.73% # Class of executed instruction
system.cpu.op_class::SimdFloatSqrt                  0      0.00%     80.73% # Class of executed instruction
system.cpu.op_class::SimdReduceAdd                  0      0.00%     80.73% # Class of executed instruction
system.cpu.op_class::SimdReduceAlu                  0      0.00%     80.73% # Class of executed instruction
system.cpu.op_class::SimdReduceCmp                  0      0.00%     80.73% # Class of executed instruction
system.cpu.op_class::SimdFloatReduceAdd             0      0.00%     80.73% # Class of executed instruction
system.cpu.op_class::SimdFloatReduceCmp             0      0.00%     80.73% # Class of executed instruction
system.cpu.op_class::SimdAes                        0      0.00%     80.73% # Class of executed instruction
system.cpu.op_class::SimdAesMix                     0      0.00%     80.73% # Class of executed instruction
system.cpu.op_class::SimdSha1Hash                   0      0.00%     80.73% # Class of executed instruction
system.cpu.op_class::SimdSha1Hash2                  0      0.00%     80.73% # Class of executed instruction
system.cpu.op_class::SimdSha256Hash                 0      0.00%     80.73% # Class of executed instruction
system.cpu.op_class::SimdSha256Hash2                0      0.00%     80.73% # Class of executed instruction
system.cpu.op_class::SimdShaSigma2                  0      0.00%     80.73% # Class of executed instruction
system.cpu.op_class::SimdShaSigma3                  0      0.00%     80.73% # Class of executed instruction
system.cpu.op_class::SimdPredAlu                    0      0.00%     80.73% # Class of executed instruction
system.cpu.op_class::MemRead                  5082687      9.44%     90.17% # Class of executed instruction
system.cpu.op_class::MemWrite                 3389654      6.30%     96.47% # Class of executed instruction
system.cpu.op_class::FloatMemRead             1638860      3.04%     99.51% # Class of executed instruction
system.cpu.op_class::FloatMemWrite             262833      0.49%    100.00% # Class of executed instruction
system.cpu.op_class::IprAccess                      0      0.00%    100.00% # Class of executed instruction
system.cpu.op_class::InstPrefetch                   0      0.00%    100.00% # Class of executed instruction
system.cpu.op_class::total                   53839040                       # Class of executed instruction
system.cpu.workload.numSyscalls                    46                       # Number of system calls
system.l2bus.snoop_filter.hit_multi_requests            0                       # Number of requests hitting in the snoop filter with multiple (>1) holders of the requested data.
system.l2bus.snoop_filter.hit_multi_snoops            0                       # Number of snoops hitting in the snoop filter with multiple (>1) holders of the requested data.
system.l2bus.snoop_filter.hit_single_requests       249853                       # Number of requests hitting in the snoop filter with a single holder of the requested data.
system.l2bus.snoop_filter.hit_single_snoops         2769                       # Number of snoops hitting in the snoop filter with a single holder of the requested data.
system.l2bus.snoop_filter.tot_requests         500985                       # Total number of requests made to the snoop filter.
system.l2bus.snoop_filter.tot_snoops             2769                       # Total number of snoops made to the snoop filter.
system.membus.snoop_filter.hit_multi_requests            0                       # Number of requests hitting in the snoop filter with multiple (>1) holders of the requested data.
system.membus.snoop_filter.hit_multi_snoops            0                       # Number of snoops hitting in the snoop filter with multiple (>1) holders of the requested data.
system.membus.snoop_filter.hit_single_requests       177430                       # Number of requests hitting in the snoop filter with a single holder of the requested data.
system.membus.snoop_filter.hit_single_snoops            0                       # Number of snoops hitting in the snoop filter with a single holder of the requested data.
system.membus.snoop_filter.tot_requests        359037                       # Total number of requests made to the snoop filter.
system.membus.snoop_filter.tot_snoops               0                       # Total number of snoops made to the snoop filter.
system.clk_domain.clock                          1000                       # Clock period in ticks
system.clk_domain.voltage_domain.voltage            1                       # Voltage in Volts
system.cpu.dcache.demand_hits::.cpu.data     10128042                       # number of demand (read+write) hits
system.cpu.dcache.demand_hits::total         10128042                       # number of demand (read+write) hits
system.cpu.dcache.overall_hits::.cpu.data     10128042                       # number of overall hits
system.cpu.dcache.overall_hits::total        10128042                       # number of overall hits
system.cpu.dcache.demand_misses::.cpu.data       250135                       # number of demand (read+write) misses
system.cpu.dcache.demand_misses::total         250135                       # number of demand (read+write) misses
system.cpu.dcache.overall_misses::.cpu.data       250135                       # number of overall misses
system.cpu.dcache.overall_misses::total        250135                       # number of overall misses
system.cpu.dcache.demand_miss_latency::.cpu.data  21130288000                       # number of demand (read+write) miss cycles
system.cpu.dcache.demand_miss_latency::total  21130288000                       # number of demand (read+write) miss cycles
system.cpu.dcache.overall_miss_latency::.cpu.data  21130288000                       # number of overall miss cycles
system.cpu.dcache.overall_miss_latency::total  21130288000                       # number of overall miss cycles
system.cpu.dcache.demand_accesses::.cpu.data     10378177                       # number of demand (read+write) accesses
system.cpu.dcache.demand_accesses::total     10378177                       # number of demand (read+write) accesses
system.cpu.dcache.overall_accesses::.cpu.data     10378177                       # number of overall (read+write) accesses
system.cpu.dcache.overall_accesses::total     10378177                       # number of overall (read+write) accesses
system.cpu.dcache.demand_miss_rate::.cpu.data     0.024102                       # miss rate for demand accesses
system.cpu.dcache.demand_miss_rate::total     0.024102                       # miss rate for demand accesses
system.cpu.dcache.overall_miss_rate::.cpu.data     0.024102                       # miss rate for overall accesses
system.cpu.dcache.overall_miss_rate::total     0.024102                       # miss rate for overall accesses
system.cpu.dcache.demand_avg_miss_latency::.cpu.data 84475.535211                       # average overall miss latency
system.cpu.dcache.demand_avg_miss_latency::total 84475.535211                       # average overall miss latency
system.cpu.dcache.overall_avg_miss_latency::.cpu.data 84475.535211                       # average overall miss latency
system.cpu.dcache.overall_avg_miss_latency::total 84475.535211                       # average overall miss latency
system.cpu.dcache.blocked_cycles::no_mshrs            0                       # number of cycles access was blocked
system.cpu.dcache.blocked_cycles::no_targets            0                       # number of cycles access was blocked
system.cpu.dcache.blocked::no_mshrs                 0                       # number of cycles access was blocked
system.cpu.dcache.blocked::no_targets               0                       # number of cycles access was blocked
system.cpu.dcache.avg_blocked_cycles::no_mshrs          nan                       # average number of cycles each access was blocked
system.cpu.dcache.avg_blocked_cycles::no_targets          nan                       # average number of cycles each access was blocked
system.cpu.dcache.writebacks::.writebacks       126248                       # number of writebacks
system.cpu.dcache.writebacks::total            126248                       # number of writebacks
system.cpu.dcache.demand_mshr_misses::.cpu.data       250135                       # number of demand (read+write) MSHR misses
system.cpu.dcache.demand_mshr_misses::total       250135                       # number of demand (read+write) MSHR misses
system.cpu.dcache.overall_mshr_misses::.cpu.data       250135                       # number of overall MSHR misses
system.cpu.dcache.overall_mshr_misses::total       250135                       # number of overall MSHR misses
system.cpu.dcache.demand_mshr_miss_latency::.cpu.data  20630018000                       # number of demand (read+write) MSHR miss cycles
system.cpu.dcache.demand_mshr_miss_latency::total  20630018000                       # number of demand (read+write) MSHR miss cycles
system.cpu.dcache.overall_mshr_miss_latency::.cpu.data  20630018000                       # number of overall MSHR miss cycles
system.cpu.dcache.overall_mshr_miss_latency::total  20630018000                       # number of overall MSHR miss cycles
system.cpu.dcache.demand_mshr_miss_rate::.cpu.data     0.024102                       # mshr miss rate for demand accesses
system.cpu.dcache.demand_mshr_miss_rate::total     0.024102                       # mshr miss rate for demand accesses
system.cpu.dcache.overall_mshr_miss_rate::.cpu.data     0.024102                       # mshr miss rate for overall accesses
system.cpu.dcache.overall_mshr_miss_rate::total     0.024102                       # mshr miss rate for overall accesses
system.cpu.dcache.demand_avg_mshr_miss_latency::.cpu.data 82475.535211                       # average overall mshr miss latency
system.cpu.dcache.demand_avg_mshr_miss_latency::total 82475.535211                       # average overall mshr miss latency
system.cpu.dcache.overall_avg_mshr_miss_latency::.cpu.data 82475.535211                       # average overall mshr miss latency
system.cpu.dcache.overall_avg_mshr_miss_latency::total 82475.535211                       # average overall mshr miss latency
system.cpu.dcache.replacements                 249111                       # number of replacements
system.cpu.dcache.ReadReq_hits::.cpu.data      6579493                       # number of ReadReq hits
system.cpu.dcache.ReadReq_hits::total         6579493                       # number of ReadReq hits
system.cpu.dcache.ReadReq_misses::.cpu.data       146176                       # number of ReadReq misses
system.cpu.dcache.ReadReq_misses::total        146176                       # number of ReadReq misses
system.cpu.dcache.ReadReq_miss_latency::.cpu.data  13251362000                       # number of ReadReq miss cycles
system.cpu.dcache.ReadReq_miss_latency::total  13251362000                       # number of ReadReq miss cycles
system.cpu.dcache.ReadReq_accesses::.cpu.data      6725669                       # number of ReadReq accesses(hits+misses)
system.cpu.dcache.ReadReq_accesses::total      6725669                       # number of ReadReq accesses(hits+misses)
system.cpu.dcache.ReadReq_miss_rate::.cpu.data     0.021734                       # miss rate for ReadReq accesses
system.cpu.dcache.ReadReq_miss_rate::total     0.021734                       # miss rate for ReadReq accesses
system.cpu.dcache.ReadReq_avg_miss_latency::.cpu.data 90653.472526                       # average ReadReq miss latency
system.cpu.dcache.ReadReq_avg_miss_latency::total 90653.472526                       # average ReadReq miss latency
system.cpu.dcache.ReadReq_mshr_misses::.cpu.data       146176                       # number of ReadReq MSHR misses
system.cpu.dcache.ReadReq_mshr_misses::total       146176                       # number of ReadReq MSHR misses
system.cpu.dcache.ReadReq_mshr_miss_latency::.cpu.data  12959010000                       # number of ReadReq MSHR miss cycles
system.cpu.dcache.ReadReq_mshr_miss_latency::total  12959010000                       # number of ReadReq MSHR miss cycles
system.cpu.dcache.ReadReq_mshr_miss_rate::.cpu.data     0.021734                       # mshr miss rate for ReadReq accesses
system.cpu.dcache.ReadReq_mshr_miss_rate::total     0.021734                       # mshr miss rate for ReadReq accesses
system.cpu.dcache.ReadReq_avg_mshr_miss_latency::.cpu.data 88653.472526                       # average ReadReq mshr miss latency
system.cpu.dcache.ReadReq_avg_mshr_miss_latency::total 88653.472526                       # average ReadReq mshr miss latency
system.cpu.dcache.WriteReq_hits::.cpu.data      3548549                       # number of WriteReq hits
system.cpu.dcache.WriteReq_hits::total        3548549                       # number of WriteReq hits
system.cpu.dcache.WriteReq_misses::.cpu.data       103959                       # number of WriteReq misses
system.cpu.dcache.WriteReq_misses::total       103959                       # number of WriteReq misses
system.cpu.dcache.WriteReq_miss_latency::.cpu.data   7878926000                       # number of WriteReq miss cycles
system.cpu.dcache.WriteReq_miss_latency::total   7878926000                       # number of WriteReq miss cycles
system.cpu.dcache.WriteReq_accesses::.cpu.data      3652508                       # number of WriteReq accesses(hits+misses)
system.cpu.dcache.WriteReq_accesses::total      3652508                       # number of WriteReq accesses(hits+misses)
system.cpu.dcache.WriteReq_miss_rate::.cpu.data     0.028462                       # miss rate for WriteReq accesses
system.cpu.dcache.WriteReq_miss_rate::total     0.028462                       # miss rate for WriteReq accesses
system.cpu.dcache.WriteReq_avg_miss_latency::.cpu.data 75788.782116                       # average WriteReq miss latency
system.cpu.dcache.WriteReq_avg_miss_latency::total 75788.782116                       # average WriteReq miss latency
system.cpu.dcache.WriteReq_mshr_misses::.cpu.data       103959                       # number of WriteReq MSHR misses
system.cpu.dcache.WriteReq_mshr_misses::total       103959                       # number of WriteReq MSHR misses
system.cpu.dcache.WriteReq_mshr_miss_latency::.cpu.data   7671008000                       # number of WriteReq MSHR miss cycles
system.cpu.dcache.WriteReq_mshr_miss_latency::total   7671008000                       # number of WriteReq MSHR miss cycles
system.cpu.dcache.WriteReq_mshr_miss_rate::.cpu.data     0.028462                       # mshr miss rate for WriteReq accesses
system.cpu.dcache.WriteReq_mshr_miss_rate::total     0.028462                       # mshr miss rate for WriteReq accesses
system.cpu.dcache.WriteReq_avg_mshr_miss_latency::.cpu.data 73788.782116                       # average WriteReq mshr miss latency
system.cpu.dcache.WriteReq_avg_mshr_miss_latency::total 73788.782116                       # average WriteReq mshr miss latency
system.cpu.dcache.power_state.pwrStateResidencyTicks::UNDEFINED 128188158000                       # Cumulative time (in ticks) in various power states
system.cpu.dcache.tags.tagsinuse           994.256831                       # Cycle average of tags in use
system.cpu.dcache.tags.total_refs            10378177                       # Total number of references to valid blocks.
system.cpu.dcache.tags.sampled_refs            250135                       # Sample count of references to valid blocks.
system.cpu.dcache.tags.avg_refs             41.490303                       # Average number of references to valid blocks.
system.cpu.dcache.tags.warmup_cycle            224000                       # Cycle when the warmup percentage was hit.
system.cpu.dcache.tags.occ_blocks::.cpu.data   994.256831                       # Average occupied blocks per requestor
system.cpu.dcache.tags.occ_percent::.cpu.data     0.970954                       # Average percentage of cache occupancy
system.cpu.dcache.tags.occ_percent::total     0.970954                       # Average percentage of cache occupancy
system.cpu.dcache.tags.occ_task_id_blocks::1024         1024                       # Occupied blocks per task id
system.cpu.dcache.tags.age_task_id_blocks_1024::0           20                       # Occupied blocks per task id
system.cpu.dcache.tags.age_task_id_blocks_1024::1           42                       # Occupied blocks per task id
system.cpu.dcache.tags.age_task_id_blocks_1024::2          962                       # Occupied blocks per task id
system.cpu.dcache.tags.occ_task_id_percent::1024            1                       # Percentage of cache occupancy per task id
system.cpu.dcache.tags.tag_accesses          21006489                       # Number of tag accesses
system.cpu.dcache.tags.data_accesses         21006489                       # Number of data accesses
system.cpu.dcache.tags.power_state.pwrStateResidencyTicks::UNDEFINED 128188158000                       # Cumulative time (in ticks) in various power states
system.cpu.dtb.rdAccesses                     6725670                       # TLB accesses on read requests
system.cpu.dtb.wrAccesses                     3652511                       # TLB accesses on write requests
system.cpu.dtb.rdMisses                          1853                       # TLB misses on read requests
system.cpu.dtb.wrMisses                         35717                       # TLB misses on write requests
system.cpu.dtb.walker.power_state.pwrStateResidencyTicks::UNDEFINED 128188158000                       # Cumulative time (in ticks) in various power states
system.cpu.icache.demand_hits::.cpu.inst     43359514                       # number of demand (read+write) hits
system.cpu.icache.demand_hits::total         43359514                       # number of demand (read+write) hits
system.cpu.icache.overall_hits::.cpu.inst     43359514                       # number of overall hits
system.cpu.icache.overall_hits::total        43359514                       # number of overall hits
system.cpu.icache.demand_misses::.cpu.inst          997                       # number of demand (read+write) misses
system.cpu.icache.demand_misses::total            997                       # number of demand (read+write) misses
system.cpu.icache.overall_misses::.cpu.inst          997                       # number of overall misses
system.cpu.icache.overall_misses::total           997                       # number of overall misses
system.cpu.icache.demand_miss_latency::.cpu.inst     91114000                       # number of demand (read+write) miss cycles
system.cpu.icache.demand_miss_latency::total     91114000                       # number of demand (read+write) miss cycles
system.cpu.icache.overall_miss_latency::.cpu.inst     91114000                       # number of overall miss cycles
system.cpu.icache.overall_miss_latency::total     91114000                       # number of overall miss cycles
system.cpu.icache.demand_accesses::.cpu.inst     43360511                       # number of demand (read+write) accesses
system.cpu.icache.demand_accesses::total     43360511                       # number of demand (read+write) accesses
system.cpu.icache.overall_accesses::.cpu.inst     43360511                       # number of overall (read+write) accesses
system.cpu.icache.overall_accesses::total     43360511                       # number of overall (read+write) accesses
system.cpu.icache.demand_miss_rate::.cpu.inst     0.000023                       # miss rate for demand accesses
system.cpu.icache.demand_miss_rate::total     0.000023                       # miss rate for demand accesses
system.cpu.icache.overall_miss_rate::.cpu.inst     0.000023                       # miss rate for overall accesses
system.cpu.icache.overall_miss_rate::total     0.000023                       # miss rate for overall accesses
system.cpu.icache.demand_avg_miss_latency::.cpu.inst 91388.164493                       # average overall miss latency
system.cpu.icache.demand_avg_miss_latency::total 91388.164493                       # average overall miss latency
system.cpu.icache.overall_avg_miss_latency::.cpu.inst 91388.164493                       # average overall miss latency
system.cpu.icache.overall_avg_miss_latency::total 91388.164493                       # average overall miss latency
system.cpu.icache.blocked_cycles::no_mshrs            0                       # number of cycles access was blocked
system.cpu.icache.blocked_cycles::no_targets            0                       # number of cycles access was blocked
system.cpu.icache.blocked::no_mshrs                 0                       # number of cycles access was blocked
system.cpu.icache.blocked::no_targets               0                       # number of cycles access was blocked
system.cpu.icache.avg_blocked_cycles::no_mshrs          nan                       # average number of cycles each access was blocked
system.cpu.icache.avg_blocked_cycles::no_targets          nan                       # average number of cycles each access was blocked
system.cpu.icache.demand_mshr_misses::.cpu.inst          997                       # number of demand (read+write) MSHR misses
system.cpu.icache.demand_mshr_misses::total          997                       # number of demand (read+write) MSHR misses
system.cpu.icache.overall_mshr_misses::.cpu.inst          997                       # number of overall MSHR misses
system.cpu.icache.overall_mshr_misses::total          997                       # number of overall MSHR misses
system.cpu.icache.demand_mshr_miss_latency::.cpu.inst     89120000                       # number of demand (read+write) MSHR miss cycles
system.cpu.icache.demand_mshr_miss_latency::total     89120000                       # number of demand (read+write) MSHR miss cycles
system.cpu.icache.overall_mshr_miss_latency::.cpu.inst     89120000                       # number of overall MSHR miss cycles
system.cpu.icache.overall_mshr_miss_latency::total     89120000                       # number of overall MSHR miss cycles
system.cpu.icache.demand_mshr_miss_rate::.cpu.inst     0.000023                       # mshr miss rate for demand accesses
system.cpu.icache.demand_mshr_miss_rate::total     0.000023                       # mshr miss rate for demand accesses
system.cpu.icache.overall_mshr_miss_rate::.cpu.inst     0.000023                       # mshr miss rate for overall accesses
system.cpu.icache.overall_mshr_miss_rate::total     0.000023                       # mshr miss rate for overall accesses
system.cpu.icache.demand_avg_mshr_miss_latency::.cpu.inst 89388.164493                       # average overall mshr miss latency
system.cpu.icache.demand_avg_mshr_miss_latency::total 89388.164493                       # average overall mshr miss latency
system.cpu.icache.overall_avg_mshr_miss_latency::.cpu.inst 89388.164493                       # average overall mshr miss latency
system.cpu.icache.overall_avg_mshr_miss_latency::total 89388.164493                       # average overall mshr miss latency
system.cpu.icache.replacements                    742                       # number of replacements
system.cpu.icache.ReadReq_hits::.cpu.inst     43359514                       # number of ReadReq hits
system.cpu.icache.ReadReq_hits::total        43359514                       # number of ReadReq hits
system.cpu.icache.ReadReq_misses::.cpu.inst          997                       # number of ReadReq misses
system.cpu.icache.ReadReq_misses::total           997                       # number of ReadReq misses
system.cpu.icache.ReadReq_miss_latency::.cpu.inst     91114000                       # number of ReadReq miss cycles
system.cpu.icache.ReadReq_miss_latency::total     91114000                       # number of ReadReq miss cycles
system.cpu.icache.ReadReq_accesses::.cpu.inst     43360511                       # number of ReadReq accesses(hits+misses)
system.cpu.icache.ReadReq_accesses::total     43360511                       # number of ReadReq accesses(hits+misses)
system.cpu.icache.ReadReq_miss_rate::.cpu.inst     0.000023                       # miss rate for ReadReq accesses
system.cpu.icache.ReadReq_miss_rate::total     0.000023                       # miss rate for ReadReq accesses
system.cpu.icache.ReadReq_avg_miss_latency::.cpu.inst 91388.164493                       # average ReadReq miss latency
system.cpu.icache.ReadReq_avg_miss_latency::total 91388.164493                       # average ReadReq miss latency
system.cpu.icache.ReadReq_mshr_misses::.cpu.inst          997                       # number of ReadReq MSHR misses
system.cpu.icache.ReadReq_mshr_misses::total          997                       # number of ReadReq MSHR misses
system.cpu.icache.ReadReq_mshr_miss_latency::.cpu.inst     89120000                       # number of ReadReq MSHR miss cycles
system.cpu.icache.ReadReq_mshr_miss_latency::total     89120000                       # number of ReadReq MSHR miss cycles
system.cpu.icache.ReadReq_mshr_miss_rate::.cpu.inst     0.000023                       # mshr miss rate for ReadReq accesses
system.cpu.icache.ReadReq_mshr_miss_rate::total     0.000023                       # mshr miss rate for ReadReq accesses
system.cpu.icache.ReadReq_avg_mshr_miss_latency::.cpu.inst 89388.164493                       # average ReadReq mshr miss latency
system.cpu.icache.ReadReq_avg_mshr_miss_latency::total 89388.164493                       # average ReadReq mshr miss latency
system.cpu.icache.power_state.pwrStateResidencyTicks::UNDEFINED 128188158000                       # Cumulative time (in ticks) in various power states
system.cpu.icache.tags.tagsinuse           253.914464                       # Cycle average of tags in use
system.cpu.icache.tags.total_refs            43360511                       # Total number of references to valid blocks.
system.cpu.icache.tags.sampled_refs               997                       # Sample count of references to valid blocks.
system.cpu.icache.tags.avg_refs          43490.983952                       # Average number of references to valid blocks.
system.cpu.icache.tags.warmup_cycle            107000                       # Cycle when the warmup percentage was hit.
system.cpu.icache.tags.occ_blocks::.cpu.inst   253.914464                       # Average occupied blocks per requestor
system.cpu.icache.tags.occ_percent::.cpu.inst     0.991853                       # Average percentage of cache occupancy
system.cpu.icache.tags.occ_percent::total     0.991853                       # Average percentage of cache occupancy
system.cpu.icache.tags.occ_task_id_blocks::1024          255                       # Occupied blocks per task id
system.cpu.icache.tags.age_task_id_blocks_1024::0           52                       # Occupied blocks per task id
system.cpu.icache.tags.age_task_id_blocks_1024::1          119                       # Occupied blocks per task id
system.cpu.icache.tags.age_task_id_blocks_1024::2           12                       # Occupied blocks per task id
system.cpu.icache.tags.age_task_id_blocks_1024::3            1                       # Occupied blocks per task id
system.cpu.icache.tags.age_task_id_blocks_1024::4           71                       # Occupied blocks per task id
system.cpu.icache.tags.occ_task_id_percent::1024     0.996094                       # Percentage of cache occupancy per task id
system.cpu.icache.tags.tag_accesses          86722019                       # Number of tag accesses
system.cpu.icache.tags.data_accesses         86722019                       # Number of data accesses
system.cpu.icache.tags.power_state.pwrStateResidencyTicks::UNDEFINED 128188158000                       # Cumulative time (in ticks) in various power states
system.cpu.interrupts.clk_domain.clock          16000                       # Clock period in ticks
system.cpu.itb.rdAccesses                           0                       # TLB accesses on read requests
system.cpu.itb.wrAccesses                    43360511                       # TLB accesses on write requests
system.cpu.itb.rdMisses                             0                       # TLB misses on read requests
system.cpu.itb.wrMisses                            59                       # TLB misses on write requests
system.cpu.itb.walker.power_state.pwrStateResidencyTicks::UNDEFINED 128188158000                       # Cumulative time (in ticks) in various power states
system.cpu.power_state.pwrStateResidencyTicks::ON 128188158000                       # Cumulative time (in ticks) in various power states
system.cpu.thread_0.numInsts                        0                       # Number of Instructions committed
system.cpu.thread_0.numOps                          0                       # Number of Ops committed
system.cpu.thread_0.numMemRefs                      0                       # Number of Memory References
system.l2bus.trans_dist::ReadResp              147173                       # Transaction distribution
system.l2bus.trans_dist::WritebackDirty        185507                       # Transaction distribution
system.l2bus.trans_dist::CleanEvict            243127                       # Transaction distribution
system.l2bus.trans_dist::ReadExReq             103959                       # Transaction distribution
system.l2bus.trans_dist::ReadExResp            103959                       # Transaction distribution
system.l2bus.trans_dist::ReadSharedReq         147173                       # Transaction distribution
system.l2bus.pkt_count_system.cpu.icache.mem_side_port::system.l2cache.cpu_side_port         2736                       # Packet count per connected requestor and responder (bytes)
system.l2bus.pkt_count_system.cpu.dcache.mem_side_port::system.l2cache.cpu_side_port       749381                       # Packet count per connected requestor and responder (bytes)
system.l2bus.pkt_count::total                  752117                       # Packet count per connected requestor and responder (bytes)
system.l2bus.pkt_size_system.cpu.icache.mem_side_port::system.l2cache.cpu_side_port        63808                       # Cumulative packet size per connected requestor and responder (bytes)
system.l2bus.pkt_size_system.cpu.dcache.mem_side_port::system.l2cache.cpu_side_port     24088512                       # Cumulative packet size per connected requestor and responder (bytes)
system.l2bus.pkt_size::total                 24152320                       # Cumulative packet size per connected requestor and responder (bytes)
system.l2bus.snoops                            178781                       # Total snoops (count)
system.l2bus.snoopTraffic                     3792576                       # Total snoop traffic (bytes)
system.l2bus.snoop_fanout::samples             429913                       # Request fanout histogram
system.l2bus.snoop_fanout::mean              0.006441                       # Request fanout histogram
system.l2bus.snoop_fanout::stdev             0.079996                       # Request fanout histogram
system.l2bus.snoop_fanout::underflows               0      0.00%      0.00% # Request fanout histogram
system.l2bus.snoop_fanout::0                   427144     99.36%     99.36% # Request fanout histogram
system.l2bus.snoop_fanout::1                     2769      0.64%    100.00% # Request fanout histogram
system.l2bus.snoop_fanout::2                        0      0.00%    100.00% # Request fanout histogram
system.l2bus.snoop_fanout::overflows                0      0.00%    100.00% # Request fanout histogram
system.l2bus.snoop_fanout::min_value                0                       # Request fanout histogram
system.l2bus.snoop_fanout::max_value                1                       # Request fanout histogram
system.l2bus.snoop_fanout::total               429913                       # Request fanout histogram
system.l2bus.power_state.pwrStateResidencyTicks::UNDEFINED 128188158000                       # Cumulative time (in ticks) in various power states
system.l2bus.reqLayer0.occupancy            753481000                       # Layer occupancy (ticks)
system.l2bus.reqLayer0.utilization                0.6                       # Layer utilization (%)
system.l2bus.respLayer0.occupancy             2991000                       # Layer occupancy (ticks)
system.l2bus.respLayer0.utilization               0.0                       # Layer utilization (%)
system.l2bus.respLayer1.occupancy           750405000                       # Layer occupancy (ticks)
system.l2bus.respLayer1.utilization               0.6                       # Layer utilization (%)
system.l2cache.demand_hits::.cpu.inst             163                       # number of demand (read+write) hits
system.l2cache.demand_hits::.cpu.data           69362                       # number of demand (read+write) hits
system.l2cache.demand_hits::total               69525                       # number of demand (read+write) hits
system.l2cache.overall_hits::.cpu.inst            163                       # number of overall hits
system.l2cache.overall_hits::.cpu.data          69362                       # number of overall hits
system.l2cache.overall_hits::total              69525                       # number of overall hits
system.l2cache.demand_misses::.cpu.inst           834                       # number of demand (read+write) misses
system.l2cache.demand_misses::.cpu.data        180773                       # number of demand (read+write) misses
system.l2cache.demand_misses::total            181607                       # number of demand (read+write) misses
system.l2cache.overall_misses::.cpu.inst          834                       # number of overall misses
system.l2cache.overall_misses::.cpu.data       180773                       # number of overall misses
system.l2cache.overall_misses::total           181607                       # number of overall misses
system.l2cache.demand_miss_latency::.cpu.inst     82706000                       # number of demand (read+write) miss cycles
system.l2cache.demand_miss_latency::.cpu.data  18422438000                       # number of demand (read+write) miss cycles
system.l2cache.demand_miss_latency::total  18505144000                       # number of demand (read+write) miss cycles
system.l2cache.overall_miss_latency::.cpu.inst     82706000                       # number of overall miss cycles
system.l2cache.overall_miss_latency::.cpu.data  18422438000                       # number of overall miss cycles
system.l2cache.overall_miss_latency::total  18505144000                       # number of overall miss cycles
system.l2cache.demand_accesses::.cpu.inst          997                       # number of demand (read+write) accesses
system.l2cache.demand_accesses::.cpu.data       250135                       # number of demand (read+write) accesses
system.l2cache.demand_accesses::total          251132                       # number of demand (read+write) accesses
system.l2cache.overall_accesses::.cpu.inst          997                       # number of overall (read+write) accesses
system.l2cache.overall_accesses::.cpu.data       250135                       # number of overall (read+write) accesses
system.l2cache.overall_accesses::total         251132                       # number of overall (read+write) accesses
system.l2cache.demand_miss_rate::.cpu.inst     0.836510                       # miss rate for demand accesses
system.l2cache.demand_miss_rate::.cpu.data     0.722702                       # miss rate for demand accesses
system.l2cache.demand_miss_rate::total       0.723154                       # miss rate for demand accesses
system.l2cache.overall_miss_rate::.cpu.inst     0.836510                       # miss rate for overall accesses
system.l2cache.overall_miss_rate::.cpu.data     0.722702                       # miss rate for overall accesses
system.l2cache.overall_miss_rate::total      0.723154                       # miss rate for overall accesses
system.l2cache.demand_avg_miss_latency::.cpu.inst 99167.865707                       # average overall miss latency
system.l2cache.demand_avg_miss_latency::.cpu.data 101909.234233                       # average overall miss latency
system.l2cache.demand_avg_miss_latency::total 101896.644953                       # average overall miss latency
system.l2cache.overall_avg_miss_latency::.cpu.inst 99167.865707                       # average overall miss latency
system.l2cache.overall_avg_miss_latency::.cpu.data 101909.234233                       # average overall miss latency
system.l2cache.overall_avg_miss_latency::total 101896.644953                       # average overall miss latency
system.l2cache.blocked_cycles::no_mshrs             0                       # number of cycles access was blocked
system.l2cache.blocked_cycles::no_targets            0                       # number of cycles access was blocked
system.l2cache.blocked::no_mshrs                    0                       # number of cycles access was blocked
system.l2cache.blocked::no_targets                  0                       # number of cycles access was blocked
system.l2cache.avg_blocked_cycles::no_mshrs          nan                       # average number of cycles each access was blocked
system.l2cache.avg_blocked_cycles::no_targets          nan                       # average number of cycles each access was blocked
system.l2cache.writebacks::.writebacks          59259                       # number of writebacks
system.l2cache.writebacks::total                59259                       # number of writebacks
system.l2cache.demand_mshr_misses::.cpu.inst          834                       # number of demand (read+write) MSHR misses
system.l2cache.demand_mshr_misses::.cpu.data       180773                       # number of demand (read+write) MSHR misses
system.l2cache.demand_mshr_misses::total       181607                       # number of demand (read+write) MSHR misses
system.l2cache.overall_mshr_misses::.cpu.inst          834                       # number of overall MSHR misses
system.l2cache.overall_mshr_misses::.cpu.data       180773                       # number of overall MSHR misses
system.l2cache.overall_mshr_misses::total       181607                       # number of overall MSHR misses
system.l2cache.demand_mshr_miss_latency::.cpu.inst     66026000                       # number of demand (read+write) MSHR miss cycles
system.l2cache.demand_mshr_miss_latency::.cpu.data  14806978000                       # number of demand (read+write) MSHR miss cycles
system.l2cache.demand_mshr_miss_latency::total  14873004000                       # number of demand (read+write) MSHR miss cycles
system.l2cache.overall_mshr_miss_latency::.cpu.inst     66026000                       # number of overall MSHR miss cycles
system.l2cache.overall_mshr_miss_latency::.cpu.data  14806978000                       # number of overall MSHR miss cycles
system.l2cache.overall_mshr_miss_latency::total  14873004000                       # number of overall MSHR miss cycles
system.l2cache.demand_mshr_miss_rate::.cpu.inst     0.836510                       # mshr miss rate for demand accesses
system.l2cache.demand_mshr_miss_rate::.cpu.data     0.722702                       # mshr miss rate for demand accesses
system.l2cache.demand_mshr_miss_rate::total     0.723154                       # mshr miss rate for demand accesses
system.l2cache.overall_mshr_miss_rate::.cpu.inst     0.836510                       # mshr miss rate for overall accesses
system.l2cache.overall_mshr_miss_rate::.cpu.data     0.722702                       # mshr miss rate for overall accesses
system.l2cache.overall_mshr_miss_rate::total     0.723154                       # mshr miss rate for overall accesses
system.l2cache.demand_avg_mshr_miss_latency::.cpu.inst 79167.865707                       # average overall mshr miss latency
system.l2cache.demand_avg_mshr_miss_latency::.cpu.data 81909.234233                       # average overall mshr miss latency
system.l2cache.demand_avg_mshr_miss_latency::total 81896.644953                       # average overall mshr miss latency
system.l2cache.overall_avg_mshr_miss_latency::.cpu.inst 79167.865707                       # average overall mshr miss latency
system.l2cache.overall_avg_mshr_miss_latency::.cpu.data 81909.234233                       # average overall mshr miss latency
system.l2cache.overall_avg_mshr_miss_latency::total 81896.644953                       # average overall mshr miss latency
system.l2cache.replacements                    176967                       # number of replacements
system.l2cache.WritebackDirty_hits::.writebacks       126237                       # number of WritebackDirty hits
system.l2cache.WritebackDirty_hits::total       126237                       # number of WritebackDirty hits
system.l2cache.WritebackDirty_misses::.writebacks           11                       # number of WritebackDirty misses
system.l2cache.WritebackDirty_misses::total           11                       # number of WritebackDirty misses
system.l2cache.WritebackDirty_accesses::.writebacks       126248                       # number of WritebackDirty accesses(hits+misses)
system.l2cache.WritebackDirty_accesses::total       126248                       # number of WritebackDirty accesses(hits+misses)
system.l2cache.WritebackDirty_miss_rate::.writebacks     0.000087                       # miss rate for WritebackDirty accesses
system.l2cache.WritebackDirty_miss_rate::total     0.000087                       # miss rate for WritebackDirty accesses
system.l2cache.WritebackDirty_mshr_misses::.writebacks           11                       # number of WritebackDirty MSHR misses
system.l2cache.WritebackDirty_mshr_misses::total           11                       # number of WritebackDirty MSHR misses
system.l2cache.WritebackDirty_mshr_miss_rate::.writebacks     0.000087                       # mshr miss rate for WritebackDirty accesses
system.l2cache.WritebackDirty_mshr_miss_rate::total     0.000087                       # mshr miss rate for WritebackDirty accesses
system.l2cache.CleanEvict_mshr_misses::.writebacks         1407                       # number of CleanEvict MSHR misses
system.l2cache.CleanEvict_mshr_misses::total         1407                       # number of CleanEvict MSHR misses
system.l2cache.CleanEvict_mshr_miss_rate::.writebacks          inf                       # mshr miss rate for CleanEvict accesses
system.l2cache.CleanEvict_mshr_miss_rate::total          inf                       # mshr miss rate for CleanEvict accesses
system.l2cache.ReadExReq_hits::.cpu.data        45044                       # number of ReadExReq hits
system.l2cache.ReadExReq_hits::total            45044                       # number of ReadExReq hits
system.l2cache.ReadExReq_misses::.cpu.data        58915                       # number of ReadExReq misses
system.l2cache.ReadExReq_misses::total          58915                       # number of ReadExReq misses
system.l2cache.ReadExReq_miss_latency::.cpu.data   6413141000                       # number of ReadExReq miss cycles
system.l2cache.ReadExReq_miss_latency::total   6413141000                       # number of ReadExReq miss cycles
system.l2cache.ReadExReq_accesses::.cpu.data       103959                       # number of ReadExReq accesses(hits+misses)
system.l2cache.ReadExReq_accesses::total       103959                       # number of ReadExReq accesses(hits+misses)
system.l2cache.ReadExReq_miss_rate::.cpu.data     0.566714                       # miss rate for ReadExReq accesses
system.l2cache.ReadExReq_miss_rate::total     0.566714                       # miss rate for ReadExReq accesses
system.l2cache.ReadExReq_avg_miss_latency::.cpu.data 108854.128830                       # average ReadExReq miss latency
system.l2cache.ReadExReq_avg_miss_latency::total 108854.128830                       # average ReadExReq miss latency
system.l2cache.ReadExReq_mshr_misses::.cpu.data        58915                       # number of ReadExReq MSHR misses
system.l2cache.ReadExReq_mshr_misses::total        58915                       # number of ReadExReq MSHR misses
system.l2cache.ReadExReq_mshr_miss_latency::.cpu.data   5234841000                       # number of ReadExReq MSHR miss cycles
system.l2cache.ReadExReq_mshr_miss_latency::total   5234841000                       # number of ReadExReq MSHR miss cycles
system.l2cache.ReadExReq_mshr_miss_rate::.cpu.data     0.566714                       # mshr miss rate for ReadExReq accesses
system.l2cache.ReadExReq_mshr_miss_rate::total     0.566714                       # mshr miss rate for ReadExReq accesses
system.l2cache.ReadExReq_avg_mshr_miss_latency::.cpu.data 88854.128830                       # average ReadExReq mshr miss latency
system.l2cache.ReadExReq_avg_mshr_miss_latency::total 88854.128830                       # average ReadExReq mshr miss latency
system.l2cache.ReadSharedReq_hits::.cpu.inst          163                       # number of ReadSharedReq hits
system.l2cache.ReadSharedReq_hits::.cpu.data        24318                       # number of ReadSharedReq hits
system.l2cache.ReadSharedReq_hits::total        24481                       # number of ReadSharedReq hits
system.l2cache.ReadSharedReq_misses::.cpu.inst          834                       # number of ReadSharedReq misses
system.l2cache.ReadSharedReq_misses::.cpu.data       121858                       # number of ReadSharedReq misses
system.l2cache.ReadSharedReq_misses::total       122692                       # number of ReadSharedReq misses
system.l2cache.ReadSharedReq_miss_latency::.cpu.inst     82706000                       # number of ReadSharedReq miss cycles
system.l2cache.ReadSharedReq_miss_latency::.cpu.data  12009297000                       # number of ReadSharedReq miss cycles
system.l2cache.ReadSharedReq_miss_latency::total  12092003000                       # number of ReadSharedReq miss cycles
system.l2cache.ReadSharedReq_accesses::.cpu.inst          997                       # number of ReadSharedReq accesses(hits+misses)
system.l2cache.ReadSharedReq_accesses::.cpu.data       146176                       # number of ReadSharedReq accesses(hits+misses)
system.l2cache.ReadSharedReq_accesses::total       147173                       # number of ReadSharedReq accesses(hits+misses)
system.l2cache.ReadSharedReq_miss_rate::.cpu.inst     0.836510                       # miss rate for ReadSharedReq accesses
system.l2cache.ReadSharedReq_miss_rate::.cpu.data     0.833639                       # miss rate for ReadSharedReq accesses
system.l2cache.ReadSharedReq_miss_rate::total     0.833658                       # miss rate for ReadSharedReq accesses
system.l2cache.ReadSharedReq_avg_miss_latency::.cpu.inst 99167.865707                       # average ReadSharedReq miss latency
system.l2cache.ReadSharedReq_avg_miss_latency::.cpu.data 98551.568219                       # average ReadSharedReq miss latency
system.l2cache.ReadSharedReq_avg_miss_latency::total 98555.757507                       # average ReadSharedReq miss latency
system.l2cache.ReadSharedReq_mshr_misses::.cpu.inst          834                       # number of ReadSharedReq MSHR misses
system.l2cache.ReadSharedReq_mshr_misses::.cpu.data       121858                       # number of ReadSharedReq MSHR misses
system.l2cache.ReadSharedReq_mshr_misses::total       122692                       # number of ReadSharedReq MSHR misses
system.l2cache.ReadSharedReq_mshr_miss_latency::.cpu.inst     66026000                       # number of ReadSharedReq MSHR miss cycles
system.l2cache.ReadSharedReq_mshr_miss_latency::.cpu.data   9572137000                       # number of ReadSharedReq MSHR miss cycles
system.l2cache.ReadSharedReq_mshr_miss_latency::total   9638163000                       # number of ReadSharedReq MSHR miss cycles
system.l2cache.ReadSharedReq_mshr_miss_rate::.cpu.inst     0.836510                       # mshr miss rate for ReadSharedReq accesses
system.l2cache.ReadSharedReq_mshr_miss_rate::.cpu.data     0.833639                       # mshr miss rate for ReadSharedReq accesses
system.l2cache.ReadSharedReq_mshr_miss_rate::total     0.833658                       # mshr miss rate for ReadSharedReq accesses
system.l2cache.ReadSharedReq_avg_mshr_miss_latency::.cpu.inst 79167.865707                       # average ReadSharedReq mshr miss latency
system.l2cache.ReadSharedReq_avg_mshr_miss_latency::.cpu.data 78551.568219                       # average ReadSharedReq mshr miss latency
system.l2cache.ReadSharedReq_avg_mshr_miss_latency::total 78555.757507                       # average ReadSharedReq mshr miss latency
system.l2cache.power_state.pwrStateResidencyTicks::UNDEFINED 128188158000                       # Cumulative time (in ticks) in various power states
system.l2cache.replacement_policy.totalBypasses         1825                       # Total number of cache bypasses
system.l2cache.replacement_policy.effectiveBypasses          115                       # Bypasses that correctly skipped non-reused blocks
system.l2cache.replacement_policy.ineffectiveBypasses          180                       # Bypasses that incorrectly skipped requested blocks
system.l2cache.replacement_policy.virtualEffectiveBypasses          875                       # Virtual bypasses correctly predicting non-reused blocks
system.l2cache.replacement_policy.virtualIneffectiveBypasses         7179                       # Virtual bypasses incorrectly predicting requested blocks
system.l2cache.tags.tagsinuse             3586.389364                       # Cycle average of tags in use
system.l2cache.tags.total_refs                 497753                       # Total number of references to valid blocks.
system.l2cache.tags.sampled_refs               181063                       # Sample count of references to valid blocks.
system.l2cache.tags.avg_refs                 2.749060                       # Average number of references to valid blocks.
system.l2cache.tags.warmup_cycle                86000                       # Cycle when the warmup percentage was hit.
system.l2cache.tags.occ_blocks::.writebacks    23.183654                       # Average occupied blocks per requestor
system.l2cache.tags.occ_blocks::.cpu.inst   159.699833                       # Average occupied blocks per requestor
system.l2cache.tags.occ_blocks::.cpu.data  3403.505878                       # Average occupied blocks per requestor
system.l2cache.tags.occ_percent::.writebacks     0.005660                       # Average percentage of cache occupancy
system.l2cache.tags.occ_percent::.cpu.inst     0.038989                       # Average percentage of cache occupancy
system.l2cache.tags.occ_percent::.cpu.data     0.830934                       # Average percentage of cache occupancy
system.l2cache.tags.occ_percent::total       0.875583                       # Average percentage of cache occupancy
system.l2cache.tags.occ_task_id_blocks::1024         4096                       # Occupied blocks per task id
system.l2cache.tags.age_task_id_blocks_1024::0           75                       # Occupied blocks per task id
system.l2cache.tags.age_task_id_blocks_1024::1          212                       # Occupied blocks per task id
system.l2cache.tags.age_task_id_blocks_1024::2         3426                       # Occupied blocks per task id
system.l2cache.tags.age_task_id_blocks_1024::3          383                       # Occupied blocks per task id
system.l2cache.tags.occ_task_id_percent::1024            1                       # Percentage of cache occupancy per task id
system.l2cache.tags.tag_accesses              4188943                       # Number of tag accesses
system.l2cache.tags.data_accesses             4188943                       # Number of data accesses
system.l2cache.tags.power_state.pwrStateResidencyTicks::UNDEFINED 128188158000                       # Cumulative time (in ticks) in various power states
system.mem_ctrl.avgPriority_.writebacks::samples     59269.00                       # Average QoS priority value for accepted requests
system.mem_ctrl.avgPriority_.cpu.inst::samples       834.00                       # Average QoS priority value for accepted requests
system.mem_ctrl.avgPriority_.cpu.data::samples    180204.00                       # Average QoS priority value for accepted requests
system.mem_ctrl.priorityMinLatency       0.000000018750                       # per QoS priority minimum request to response latency (s)
system.mem_ctrl.priorityMaxLatency       0.012716900500                       # per QoS priority maximum request to response latency (s)
system.mem_ctrl.numReadWriteTurnArounds          3316                       # Number of turnarounds from READ to WRITE
system.mem_ctrl.numWriteReadTurnArounds          3316                       # Number of turnarounds from WRITE to READ
system.mem_ctrl.numStayReadState               453925                       # Number of times bus staying in READ state
system.mem_ctrl.numStayWriteState               55960                       # Number of times bus staying in WRITE state
system.mem_ctrl.readReqs                       181607                       # Number of read requests accepted
system.mem_ctrl.writeReqs                       59270                       # Number of write requests accepted
system.mem_ctrl.readBursts                     181607                       # Number of controller read bursts, including those serviced by the write queue
system.mem_ctrl.writeBursts                     59270                       # Number of controller write bursts, including those merged in the write queue
system.mem_ctrl.servicedByWrQ                     569                       # Number of controller read bursts serviced by the write queue
system.mem_ctrl.mergedWrBursts                      1                       # Number of controller write bursts merged with an existing one
system.mem_ctrl.neitherReadNorWriteReqs             0                       # Number of requests that are neither read nor write
system.mem_ctrl.avgRdQLen                        1.00                       # Average read queue length when enqueuing
system.mem_ctrl.avgWrQLen                       16.82                       # Average write queue length when enqueuing
system.mem_ctrl.numRdRetry                          0                       # Number of times read queue was full causing retry
system.mem_ctrl.numWrRetry                          0                       # Number of times write queue was full causing retry
system.mem_ctrl.readPktSize::0                      0                       # Read request sizes (log2)
system.mem_ctrl.readPktSize::1                      0                       # Read request sizes (log2)
system.mem_ctrl.readPktSize::2                      0                       # Read request sizes (log2)
system.mem_ctrl.readPktSize::3                      0                       # Read request sizes (log2)
system.mem_ctrl.readPktSize::4                      0                       # Read request sizes (log2)
system.mem_ctrl.readPktSize::5                      0                       # Read request sizes (log2)
system.mem_ctrl.readPktSize::6                 181607                       # Read request sizes (log2)
system.mem_ctrl.writePktSize::0                     0                       # Write request sizes (log2)
system.mem_ctrl.writePktSize::1                     0                       # Write request sizes (log2)
system.mem_ctrl.writePktSize::2                     0                       # Write request sizes (log2)
system.mem_ctrl.writePktSize::3                     0                       # Write request sizes (log2)
system.mem_ctrl.writePktSize::4                     0                       # Write request sizes (log2)
system.mem_ctrl.writePktSize::5                     0                       # Write request sizes (log2)
system.mem_ctrl.writePktSize::6                 59270                       # Write request sizes (log2)
system.mem_ctrl.rdQLenPdf::0                   181037                       # What read queue length does an incoming req see
system.mem_ctrl.rdQLenPdf::1                        1                       # What read queue length does an incoming req see
system.mem_ctrl.rdQLenPdf::2                        0                       # What read queue length does an incoming req see
system.mem_ctrl.rdQLenPdf::3                        0                       # What read queue length does an incoming req see
system.mem_ctrl.rdQLenPdf::4                        0                       # What read queue length does an incoming req see
system.mem_ctrl.rdQLenPdf::5                        0                       # What read queue length does an incoming req see
system.mem_ctrl.rdQLenPdf::6                        0                       # What read queue length does an incoming req see
system.mem_ctrl.rdQLenPdf::7                        0                       # What read queue length does an incoming req see
system.mem_ctrl.rdQLenPdf::8                        0                       # What read queue length does an incoming req see
system.mem_ctrl.rdQLenPdf::9                        0                       # What read queue length does an incoming req see
system.mem_ctrl.rdQLenPdf::10                       0                       # What read queue length does an incoming req see
system.mem_ctrl.rdQLenPdf::11                       0                       # What read queue length does an incoming req see
system.mem_ctrl.rdQLenPdf::12                       0                       # What read queue length does an incoming req see
system.mem_ctrl.rdQLenPdf::13                       0                       # What read queue length does an incoming req see
system.mem_ctrl.rdQLenPdf::14                       0                       # What read queue length does an incoming req see
system.mem_ctrl.rdQLenPdf::15                       0                       # What read queue length does an incoming req see
system.mem_ctrl.rdQLenPdf::16                       0                       # What read queue length does an incoming req see
system.mem_ctrl.rdQLenPdf::17                       0                       # What read queue length does an incoming req see
system.mem_ctrl.rdQLenPdf::18                       0                       # What read queue length does an incoming req see
system.mem_ctrl.rdQLenPdf::19                       0                       # What read queue length does an incoming req see
system.mem_ctrl.rdQLenPdf::20                       0                       # What read queue length does an incoming req see
system.mem_ctrl.rdQLenPdf::21                       0                       # What read queue length does an incoming req see
system.mem_ctrl.rdQLenPdf::22                       0                       # What read queue length does an incoming req see
system.mem_ctrl.rdQLenPdf::23                       0                       # What read queue length does an incoming req see
system.mem_ctrl.rdQLenPdf::24                       0                       # What read queue length does an incoming req see
system.mem_ctrl.rdQLenPdf::25                       0                       # What read queue length does an incoming req see
system.mem_ctrl.rdQLenPdf::26                       0                       # What read queue length does an incoming req see
system.mem_ctrl.rdQLenPdf::27                       0                       # What read queue length does an incoming req see
system.mem_ctrl.rdQLenPdf::28                       0                       # What read queue length does an incoming req see
system.mem_ctrl.rdQLenPdf::29                       0                       # What read queue length does an incoming req see
system.mem_ctrl.rdQLenPdf::30                       0                       # What read queue length does an incoming req see
system.mem_ctrl.rdQLenPdf::31                       0                       # What read queue length does an incoming req see
system.mem_ctrl.wrQLenPdf::0                        1                       # What write queue length does an incoming req see
system.mem_ctrl.wrQLenPdf::1                        1                       # What write queue length does an incoming req see
system.mem_ctrl.wrQLenPdf::2                        1                       # What write queue length does an incoming req see
system.mem_ctrl.wrQLenPdf::3                        1                       # What write queue length does an incoming req see
system.mem_ctrl.wrQLenPdf::4                        1                       # What write queue length does an incoming req see
system.mem_ctrl.wrQLenPdf::5                        1                       # What write queue length does an incoming req see
system.mem_ctrl.wrQLenPdf::6                        1                       # What write queue length does an incoming req see
system.mem_ctrl.wrQLenPdf::7                        1                       # What write queue length does an incoming req see
system.mem_ctrl.wrQLenPdf::8                        1                       # What write queue length does an incoming req see
system.mem_ctrl.wrQLenPdf::9                        1                       # What write queue length does an incoming req see
system.mem_ctrl.wrQLenPdf::10                       1                       # What write queue length does an incoming req see
system.mem_ctrl.wrQLenPdf::11                       1                       # What write queue length does an incoming req see
system.mem_ctrl.wrQLenPdf::12                       1                       # What write queue length does an incoming req see
system.mem_ctrl.wrQLenPdf::13                       1                       # What write queue length does an incoming req see
system.mem_ctrl.wrQLenPdf::14                       1                       # What write queue length does an incoming req see
system.mem_ctrl.wrQLenPdf::15                    3089                       # What write queue length does an incoming req see
system.mem_ctrl.wrQLenPdf::16                    3102                       # What write queue length does an incoming req see
system.mem_ctrl.wrQLenPdf::17                    3317                       # What write queue length does an incoming req see
system.mem_ctrl.wrQLenPdf::18                    3317                       # What write queue length does an incoming req see
system.mem_ctrl.wrQLenPdf::19                    3318                       # What write queue length does an incoming req see
system.mem_ctrl.wrQLenPdf::20                    3317                       # What write queue length does an incoming req see
system.mem_ctrl.wrQLenPdf::21                    3318                       # What write queue length does an incoming req see
system.mem_ctrl.wrQLenPdf::22                    3316                       # What write queue length does an incoming req see
system.mem_ctrl.wrQLenPdf::23                    3316                       # What write queue length does an incoming req see
system.mem_ctrl.wrQLenPdf::24                    3316                       # What write queue length does an incoming req see
system.mem_ctrl.wrQLenPdf::25                    3316                       # What write queue length does an incoming req see
system.mem_ctrl.wrQLenPdf::26                    3316                       # What write queue length does an incoming req see
system.mem_ctrl.wrQLenPdf::27                    3316                       # What write queue length does an incoming req see
system.mem_ctrl.wrQLenPdf::28                    3316                       # What write queue length does an incoming req see
system.mem_ctrl.wrQLenPdf::29                    3316                       # What write queue length does an incoming req see
system.mem_ctrl.wrQLenPdf::30                    3316                       # What write queue length does an incoming req see
system.mem_ctrl.wrQLenPdf::31                    3316                       # What write queue length does an incoming req see
system.mem_ctrl.wrQLenPdf::32                    3316                       # What write queue length does an incoming req see
system.mem_ctrl.wrQLenPdf::33                       0                       # What write queue length does an incoming req see
system.mem_ctrl.wrQLenPdf::34                       0                       # What write queue length does an incoming req see
system.mem_ctrl.wrQLenPdf::35                       0                       # What write queue length does an incoming req see
system.mem_ctrl.wrQLenPdf::36                       0                       # What write queue length does an incoming req see
system.mem_ctrl.wrQLenPdf::37                       0                       # What write queue length does an incoming req see
system.mem_ctrl.wrQLenPdf::38                       0                       # What write queue length does an incoming req see
system.mem_ctrl.wrQLenPdf::39                       0                       # What write queue length does an incoming req see
system.mem_ctrl.wrQLenPdf::40                       0                       # What write queue length does an incoming req see
system.mem_ctrl.wrQLenPdf::41                       0                       # What write queue length does an incoming req see
system.mem_ctrl.wrQLenPdf::42                       0                       # What write queue length does an incoming req see
system.mem_ctrl.wrQLenPdf::43                       0                       # What write queue length does an incoming req see
system.mem_ctrl.wrQLenPdf::44                       0                       # What write queue length does an incoming req see
system.mem_ctrl.wrQLenPdf::45                       0                       # What write queue length does an incoming req see
system.mem_ctrl.wrQLenPdf::46                       0                       # What write queue length does an incoming req see
system.mem_ctrl.wrQLenPdf::47                       0                       # What write queue length does an incoming req see
system.mem_ctrl.wrQLenPdf::48                       0                       # What write queue length does an incoming req see
system.mem_ctrl.wrQLenPdf::49                       0                       # What write queue length does an incoming req see
system.mem_ctrl.wrQLenPdf::50                       0                       # What write queue length does an incoming req see
system.mem_ctrl.wrQLenPdf::51                       0                       # What write queue length does an incoming req see
system.mem_ctrl.wrQLenPdf::52                       0                       # What write queue length does an incoming req see
system.mem_ctrl.wrQLenPdf::53                       0                       # What write queue length does an incoming req see
system.mem_ctrl.wrQLenPdf::54                       0                       # What write queue length does an incoming req see
system.mem_ctrl.wrQLenPdf::55                       0                       # What write queue length does an incoming req see
system.mem_ctrl.wrQLenPdf::56                       0                       # What write queue length does an incoming req see
system.mem_ctrl.wrQLenPdf::57                       0                       # What write queue length does an incoming req see
system.mem_ctrl.wrQLenPdf::58                       0                       # What write queue length does an incoming req see
system.mem_ctrl.wrQLenPdf::59                       0                       # What write queue length does an incoming req see
system.mem_ctrl.wrQLenPdf::60                       0                       # What write queue length does an incoming req see
system.mem_ctrl.wrQLenPdf::61                       0                       # What write queue length does an incoming req see
system.mem_ctrl.wrQLenPdf::62                       0                       # What write queue length does an incoming req see
system.mem_ctrl.wrQLenPdf::63                       0                       # What write queue length does an incoming req see
system.mem_ctrl.rdPerTurnAround::samples         3316                       # Reads before turning the bus around for writes
system.mem_ctrl.rdPerTurnAround::mean       54.474367                       # Reads before turning the bus around for writes
system.mem_ctrl.rdPerTurnAround::gmean      40.659236                       # Reads before turning the bus around for writes
system.mem_ctrl.rdPerTurnAround::stdev     146.051755                       # Reads before turning the bus around for writes
system.mem_ctrl.rdPerTurnAround::0-255           3284     99.03%     99.03% # Reads before turning the bus around for writes
system.mem_ctrl.rdPerTurnAround::256-511           15      0.45%     99.49% # Reads before turning the bus around for writes
system.mem_ctrl.rdPerTurnAround::512-767            5      0.15%     99.64% # Reads before turning the bus around for writes
system.mem_ctrl.rdPerTurnAround::1024-1279            1      0.03%     99.67% # Reads before turning the bus around for writes
system.mem_ctrl.rdPerTurnAround::1536-1791            1      0.03%     99.70% # Reads before turning the bus around for writes
system.mem_ctrl.rdPerTurnAround::1792-2047            1      0.03%     99.73% # Reads before turning the bus around for writes
system.mem_ctrl.rdPerTurnAround::2048-2303            6      0.18%     99.91% # Reads before turning the bus around for writes
system.mem_ctrl.rdPerTurnAround::2304-2559            2      0.06%     99.97% # Reads before turning the bus around for writes
system.mem_ctrl.rdPerTurnAround::4352-4607            1      0.03%    100.00% # Reads before turning the bus around for writes
system.mem_ctrl.rdPerTurnAround::total           3316                       # Reads before turning the bus around for writes
system.mem_ctrl.wrPerTurnAround::samples         3316                       # Writes before turning the bus around for reads
system.mem_ctrl.wrPerTurnAround::mean       17.867008                       # Writes before turning the bus around for reads
system.mem_ctrl.wrPerTurnAround::gmean      17.859643                       # Writes before turning the bus around for reads
system.mem_ctrl.wrPerTurnAround::stdev       0.496246                       # Writes before turning the bus around for reads
system.mem_ctrl.wrPerTurnAround::16               215      6.48%      6.48% # Writes before turning the bus around for reads
system.mem_ctrl.wrPerTurnAround::17                13      0.39%      6.88% # Writes before turning the bus around for reads
system.mem_ctrl.wrPerTurnAround::18              3086     93.06%     99.94% # Writes before turning the bus around for reads
system.mem_ctrl.wrPerTurnAround::19                 2      0.06%    100.00% # Writes before turning the bus around for reads
system.mem_ctrl.wrPerTurnAround::total           3316                       # Writes before turning the bus around for reads
system.mem_ctrl.bytesReadWrQ                    36416                       # Total number of bytes read from write queue
system.mem_ctrl.bytesReadSys                 11622848                       # Total read bytes from the system interface side
system.mem_ctrl.bytesWrittenSys               3793280                       # Total written bytes from the system interface side
system.mem_ctrl.avgRdBWSys                      90.67                       # Average system read bandwidth in MiByte/s
[...]
system.mem_ctrl.requestorReadRate::.cpu.data 89969745.879334658384                       # Per-requestor bytes read from memory rate (Bytes/sec)
system.mem_ctrl.requestorWriteRate::.writebacks 29580017.835968904197                       # Per-requestor bytes write to memory rate (Bytes/sec)
system.mem_ctrl.requestorReadAccesses::.cpu.inst          834                       # Per-requestor read serviced memory accesses
system.mem_ctrl.requestorReadAccesses::.cpu.data       180773                       # Per-requestor read serviced memory accesses
system.mem_ctrl.requestorWriteAccesses::.writebacks        59270                       # Per-requestor write serviced memory accesses
system.mem_ctrl.requestorReadTotalLat::.cpu.inst     23216000                       # Per-requestor read total memory access latency
system.mem_ctrl.requestorReadTotalLat::.cpu.data   5528213500                       # Per-requestor read total memory access latency
system.mem_ctrl.requestorWriteTotalLat::.writebacks 2071188087750                       # Per-requestor write total memory access latency
system.mem_ctrl.requestorReadAvgLat::.cpu.inst     27836.93                       # Per-requestor read average memory access latency
system.mem_ctrl.requestorReadAvgLat::.cpu.data     30580.97                       # Per-requestor read average memory access latency
system.mem_ctrl.requestorWriteAvgLat::.writebacks  34944965.21                       # Per-requestor write average memory access latency
system.mem_ctrl.dram.bytes_read::.cpu.inst        53376                       # Number of bytes read from this memory
system.mem_ctrl.dram.bytes_read::.cpu.data     11569472                       # Number of bytes read from this memory
system.mem_ctrl.dram.bytes_read::total       11622848                       # Number of bytes read from this memory
system.mem_ctrl.dram.bytes_inst_read::.cpu.inst        53376                       # Number of instructions bytes read from this memory
system.mem_ctrl.dram.bytes_inst_read::total        53376                       # Number of instructions bytes read from this memory
system.mem_ctrl.dram.bytes_written::.writebacks      3793280                       # Number of bytes written to this memory
system.mem_ctrl.dram.bytes_written::total      3793280                       # Number of bytes written to this memory
system.mem_ctrl.dram.num_reads::.cpu.inst          834                       # Number of read requests responded to by this memory
system.mem_ctrl.dram.num_reads::.cpu.data       180773                       # Number of read requests responded to by this memory
system.mem_ctrl.dram.num_reads::total          181607                       # Number of read requests responded to by this memory
system.mem_ctrl.dram.num_writes::.writebacks        59270                       # Number of write requests responded to by this memory
system.mem_ctrl.dram.num_writes::total          59270                       # Number of write requests responded to by this memory
system.mem_ctrl.dram.bw_read::.cpu.inst        416388                       # Total read bandwidth from this memory (bytes/s)
system.mem_ctrl.dram.bw_read::.cpu.data      90253828                       # Total read bandwidth from this memory (bytes/s)
system.mem_ctrl.dram.bw_read::total          90670216                       # Total read bandwidth from this memory (bytes/s)
system.mem_ctrl.dram.bw_inst_read::.cpu.inst       416388                       # Instruction read bandwidth from this memory (bytes/s)
system.mem_ctrl.dram.bw_inst_read::total       416388                       # Instruction read bandwidth from this memory (bytes/s)
system.mem_ctrl.dram.bw_write::.writebacks     29591501                       # Write bandwidth from this memory (bytes/s)
system.mem_ctrl.dram.bw_write::total         29591501                       # Write bandwidth from this memory (bytes/s)
system.mem_ctrl.dram.bw_total::.writebacks     29591501                       # Total bandwidth to/from this memory (bytes/s)
system.mem_ctrl.dram.bw_total::.cpu.inst       416388                       # Total bandwidth to/from this memory (bytes/s)
system.mem_ctrl.dram.bw_total::.cpu.data     90253828                       # Total bandwidth to/from this memory (bytes/s)
system.mem_ctrl.dram.bw_total::total        120261717                       # Total bandwidth to/from this memory (bytes/s)
system.mem_ctrl.dram.readBursts                181038                       # Number of DRAM read bursts
system.mem_ctrl.dram.writeBursts                59247                       # Number of DRAM write bursts
system.mem_ctrl.dram.perBankRdBursts::0         11578                       # Per bank write bursts
system.mem_ctrl.dram.perBankRdBursts::1         11509                       # Per bank write bursts
system.mem_ctrl.dram.perBankRdBursts::2         12407                       # Per bank write bursts
system.mem_ctrl.dram.perBankRdBursts::3         10825                       # Per bank write bursts
system.mem_ctrl.dram.perBankRdBursts::4         10621                       # Per bank write bursts
system.mem_ctrl.dram.perBankRdBursts::5         11096                       # Per bank write bursts
system.mem_ctrl.dram.perBankRdBursts::6         11234                       # Per bank write bursts
system.mem_ctrl.dram.perBankRdBursts::7         10794                       # Per bank write bursts
system.mem_ctrl.dram.perBankRdBursts::8         11037                       # Per bank write bursts
system.mem_ctrl.dram.perBankRdBursts::9         11302                       # Per bank write bursts
system.mem_ctrl.dram.perBankRdBursts::10        11355                       # Per bank write bursts
system.mem_ctrl.dram.perBankRdBursts::11        11352                       # Per bank write bursts
system.mem_ctrl.dram.perBankRdBursts::12        11366                       # Per bank write bursts
system.mem_ctrl.dram.perBankRdBursts::13        11444                       # Per bank write bursts
system.mem_ctrl.dram.perBankRdBursts::14        11735                       # Per bank write bursts
system.mem_ctrl.dram.perBankRdBursts::15        11383                       # Per bank write bursts
system.mem_ctrl.dram.perBankWrBursts::0          3594                       # Per bank write bursts
system.mem_ctrl.dram.perBankWrBursts::1          4048                       # Per bank write bursts
system.mem_ctrl.dram.perBankWrBursts::2          5688                       # Per bank write bursts
system.mem_ctrl.dram.perBankWrBursts::3          4059                       # Per bank write bursts
system.mem_ctrl.dram.perBankWrBursts::4          3546                       # Per bank write bursts
system.mem_ctrl.dram.perBankWrBursts::5          3576                       # Per bank write bursts
system.mem_ctrl.dram.perBankWrBursts::6          3490                       # Per bank write bursts
system.mem_ctrl.dram.perBankWrBursts::7          3475                       # Per bank write bursts
system.mem_ctrl.dram.perBankWrBursts::8          3482                       # Per bank write bursts
system.mem_ctrl.dram.perBankWrBursts::9          3493                       # Per bank write bursts
system.mem_ctrl.dram.perBankWrBursts::10         3481                       # Per bank write bursts
system.mem_ctrl.dram.perBankWrBursts::11         3471                       # Per bank write bursts
system.mem_ctrl.dram.perBankWrBursts::12         3485                       # Per bank write bursts
system.mem_ctrl.dram.perBankWrBursts::13         3460                       # Per bank write bursts
system.mem_ctrl.dram.perBankWrBursts::14         3440                       # Per bank write bursts
system.mem_ctrl.dram.perBankWrBursts::15         3459                       # Per bank write bursts
system.mem_ctrl.dram.totQLat               2156967000                       # Total ticks spent queuing
system.mem_ctrl.dram.totBusLat              905190000                       # Total ticks spent in databus transfers
system.mem_ctrl.dram.totMemAccLat          5551429500                       # Total ticks spent from burst creation until serviced by the DRAM
system.mem_ctrl.dram.avgQLat                 11914.44                       # Average queueing delay per DRAM burst
system.mem_ctrl.dram.avgBusLat                5000.00                       # Average bus latency per DRAM burst
system.mem_ctrl.dram.avgMemAccLat            30664.44                       # Average memory access latency per DRAM burst
system.mem_ctrl.dram.readRowHits               114521                       # Number of row buffer hits during reads
system.mem_ctrl.dram.writeRowHits               43458                       # Number of row buffer hits during writes
system.mem_ctrl.dram.readRowHitRate             63.26                       # Row buffer hit rate for reads
system.mem_ctrl.dram.writeRowHitRate            73.35                       # Row buffer hit rate for writes
system.mem_ctrl.dram.bytesPerActivate::samples        82300                       # Bytes accessed per row activation
system.mem_ctrl.dram.bytesPerActivate::mean   186.838785                       # Bytes accessed per row activation
system.mem_ctrl.dram.bytesPerActivate::gmean   115.241013                       # Bytes accessed per row activation
system.mem_ctrl.dram.bytesPerActivate::stdev   239.653028                       # Bytes accessed per row activation
system.mem_ctrl.dram.bytesPerActivate::0-127        49417     60.04%     60.04% # Bytes accessed per row activation
system.mem_ctrl.dram.bytesPerActivate::128-255        15949     19.38%     79.42% # Bytes accessed per row activation
system.mem_ctrl.dram.bytesPerActivate::256-383         4798      5.83%     85.25% # Bytes accessed per row activation
system.mem_ctrl.dram.bytesPerActivate::384-511         2736      3.32%     88.58% # Bytes accessed per row activation
system.mem_ctrl.dram.bytesPerActivate::512-639         2560      3.11%     91.69% # Bytes accessed per row activation
system.mem_ctrl.dram.bytesPerActivate::640-767         1989      2.42%     94.11% # Bytes accessed per row activation
system.mem_ctrl.dram.bytesPerActivate::768-895          869      1.06%     95.16% # Bytes accessed per row activation
system.mem_ctrl.dram.bytesPerActivate::896-1023          946      1.15%     96.31% # Bytes accessed per row activation
system.mem_ctrl.dram.bytesPerActivate::1024-1151         3036      3.69%    100.00% # Bytes accessed per row activation
system.mem_ctrl.dram.bytesPerActivate::total        82300                       # Bytes accessed per row activation
system.mem_ctrl.dram.bytesRead               11586432                       # Total number of bytes read from DRAM
system.mem_ctrl.dram.bytesWritten             3791808                       # Total number of bytes written to DRAM
system.mem_ctrl.dram.avgRdBW                90.386134                       # Average DRAM read bandwidth in MiBytes/s
system.mem_ctrl.dram.avgWrBW                29.580018                       # Average DRAM write bandwidth in MiBytes/s
system.mem_ctrl.dram.peakBW                  12800.00                       # Theoretical peak bandwidth in MiByte/s
system.mem_ctrl.dram.busUtil                     0.94                       # Data bus utilization in percentage
system.mem_ctrl.dram.busUtilRead                 0.71                       # Data bus utilization in percentage for reads
system.mem_ctrl.dram.busUtilWrite                0.23                       # Data bus utilization in percentage for writes
system.mem_ctrl.dram.pageHitRate                65.75                       # Row buffer hit rate, read and write combined
system.mem_ctrl.dram.power_state.pwrStateResidencyTicks::UNDEFINED 128188158000                       # Cumulative time (in ticks) in various power states
system.mem_ctrl.dram.rank0.actEnergy        296517060                       # Energy for activate commands per rank (pJ)
system.mem_ctrl.dram.rank0.preEnergy        157594965                       # Energy for precharge commands per rank (pJ)
system.mem_ctrl.dram.rank0.readEnergy       643056960                       # Energy for read commands per rank (pJ)
system.mem_ctrl.dram.rank0.writeEnergy      164304720                       # Energy for write commands per rank (pJ)
system.mem_ctrl.dram.rank0.refreshEnergy 10118818320.000002                       # Energy for refresh commands per rank (pJ)
system.mem_ctrl.dram.rank0.actBackEnergy  30159977940                       # Energy for active background per rank (pJ)
system.mem_ctrl.dram.rank0.preBackEnergy  23826376800                       # Energy for precharge background per rank (pJ)
system.mem_ctrl.dram.rank0.actPowerDownEnergy            0                       # Energy for active power-down per rank (pJ)
system.mem_ctrl.dram.rank0.prePowerDownEnergy            0                       # Energy for precharge power-down per rank (pJ)
system.mem_ctrl.dram.rank0.selfRefreshEnergy            0                       # Energy for self refresh per rank (pJ)
system.mem_ctrl.dram.rank0.totalEnergy    65366646765                       # Total energy per rank (pJ)
system.mem_ctrl.dram.rank0.averagePower    509.927343                       # Core power per rank (mW)
system.mem_ctrl.dram.rank0.totalIdleTime            0                       # Total Idle time Per DRAM Rank
system.mem_ctrl.dram.rank0.pwrStateTime::IDLE  61642980750                       # Time in different power states
system.mem_ctrl.dram.rank0.pwrStateTime::REF   4280380000                       # Time in different power states
system.mem_ctrl.dram.rank0.pwrStateTime::SREF            0                       # Time in different power states
system.mem_ctrl.dram.rank0.pwrStateTime::PRE_PDN            0                       # Time in different power states
system.mem_ctrl.dram.rank0.pwrStateTime::ACT  62264797250                       # Time in different power states
system.mem_ctrl.dram.rank0.pwrStateTime::ACT_PDN            0                       # Time in different power states
system.mem_ctrl.dram.rank1.actEnergy        291147780                       # Energy for activate commands per rank (pJ)
system.mem_ctrl.dram.rank1.preEnergy        154733535                       # Energy for precharge commands per rank (pJ)
system.mem_ctrl.dram.rank1.readEnergy       649554360                       # Energy for read commands per rank (pJ)
system.mem_ctrl.dram.rank1.writeEnergy      144964620                       # Energy for write commands per rank (pJ)
system.mem_ctrl.dram.rank1.refreshEnergy 10118818320.000002                       # Energy for refresh commands per rank (pJ)
system.mem_ctrl.dram.rank1.actBackEnergy  30014574360                       # Energy for active background per rank (pJ)
system.mem_ctrl.dram.rank1.preBackEnergy  23948821920                       # Energy for precharge background per rank (pJ)
system.mem_ctrl.dram.rank1.actPowerDownEnergy            0                       # Energy for active power-down per rank (pJ)
system.mem_ctrl.dram.rank1.prePowerDownEnergy            0                       # Energy for precharge power-down per rank (pJ)
system.mem_ctrl.dram.rank1.selfRefreshEnergy            0                       # Energy for self refresh per rank (pJ)
system.mem_ctrl.dram.rank1.totalEnergy    65322614895                       # Total energy per rank (pJ)
system.mem_ctrl.dram.rank1.averagePower    509.583849                       # Core power per rank (mW)
system.mem_ctrl.dram.rank1.totalIdleTime            0                       # Total Idle time Per DRAM Rank
system.mem_ctrl.dram.rank1.pwrStateTime::IDLE  61959633000                       # Time in different power states
system.mem_ctrl.dram.rank1.pwrStateTime::REF   4280380000                       # Time in different power states
system.mem_ctrl.dram.rank1.pwrStateTime::SREF            0                       # Time in different power states
system.mem_ctrl.dram.rank1.pwrStateTime::PRE_PDN            0                       # Time in different power states
system.mem_ctrl.dram.rank1.pwrStateTime::ACT  61948145000                       # Time in different power states
system.mem_ctrl.dram.rank1.pwrStateTime::ACT_PDN            0                       # Time in different power states
system.mem_ctrl.power_state.pwrStateResidencyTicks::UNDEFINED 128188158000                       # Cumulative time (in ticks) in various power states
system.membus.trans_dist::ReadResp             122692                       # Transaction distribution
system.membus.trans_dist::WritebackDirty        59270                       # Transaction distribution
system.membus.trans_dist::CleanEvict           118160                       # Transaction distribution
system.membus.trans_dist::ReadExReq             58915                       # Transaction distribution
system.membus.trans_dist::ReadExResp            58915                       # Transaction distribution
system.membus.trans_dist::ReadSharedReq        122692                       # Transaction distribution
system.membus.pkt_count_system.l2cache.mem_side_port::system.mem_ctrl.port       540644                       # Packet count per connected requestor and responder (bytes)
system.membus.pkt_count_system.l2cache.mem_side_port::total       540644                       # Packet count per connected requestor and responder (bytes)
system.membus.pkt_count::total                 540644                       # Packet count per connected requestor and responder (bytes)
system.membus.pkt_size_system.l2cache.mem_side_port::system.mem_ctrl.port     15416128                       # Cumulative packet size per connected requestor and responder (bytes)
system.membus.pkt_size_system.l2cache.mem_side_port::total     15416128                       # Cumulative packet size per connected requestor and responder (bytes)
system.membus.pkt_size::total                15416128                       # Cumulative packet size per connected requestor and responder (bytes)
system.membus.snoops                                0                       # Total snoops (count)
system.membus.snoopTraffic                          0                       # Total snoop traffic (bytes)
system.membus.snoop_fanout::samples            181607                       # Request fanout histogram
system.membus.snoop_fanout::mean                    0                       # Request fanout histogram
system.membus.snoop_fanout::stdev                   0                       # Request fanout histogram
system.membus.snoop_fanout::underflows              0      0.00%      0.00% # Request fanout histogram
system.membus.snoop_fanout::0                  181607    100.00%    100.00% # Request fanout histogram
system.membus.snoop_fanout::1                       0      0.00%    100.00% # Request fanout histogram
system.membus.snoop_fanout::overflows               0      0.00%    100.00% # Request fanout histogram
system.membus.snoop_fanout::min_value               0                       # Request fanout histogram
system.membus.snoop_fanout::max_value               0                       # Request fanout histogram
system.membus.snoop_fanout::total              181607                       # Request fanout histogram
system.membus.power_state.pwrStateResidencyTicks::UNDEFINED 128188158000                       # Cumulative time (in ticks) in various power states
system.membus.reqLayer2.occupancy           596117000                       # Layer occupancy (ticks)
system.membus.reqLayer2.utilization               0.5                       # Layer utilization (%)
system.membus.respLayer0.occupancy          973327000                       # Layer occupancy (ticks)
system.membus.respLayer0.utilization              0.8                       # Layer utilization (%)

---------- End Simulation Statistics   ----------
