
---------- Begin Simulation Statistics ----------
final_tick                                   58016000                       # Number of ticks from beginning of simulation (restored from checkpoints and never reset)
host_inst_rate                                  42649                       # Simulator instruction rate (inst/s)
host_mem_usage                                 642284                       # Number of bytes of host memory used
host_op_rate                                    76649                       # Simulator op (including micro ops) rate (op/s)
host_seconds                                     0.15                       # Real time elapsed on the host
host_tick_rate                              395747110                       # Simulator tick rate (ticks/s)
sim_freq                                 1000000000000                       # Frequency of simulated ticks
sim_insts                                        6234                       # Number of instructions simulated
sim_ops                                         11231                       # Number of ops (including micro ops) simulated
sim_seconds                                  0.000058                       # Number of seconds simulated
sim_ticks                                    58016000                       # Number of ticks simulated
system.cpu.Branches                              1470                       # Number of branches fetched
system.cpu.committedInsts                        6234                       # Number of instructions committed
system.cpu.committedOps                         11231                       # Number of ops (including micro ops) committed
system.cpu.idle_fraction                     0.000000                       # Percentage of idle cycles
system.cpu.not_idle_fraction                 1.000000                       # Percentage of non-idle cycles
system.cpu.numCycles                            58016                       # number of cpu cycles simulated
system.cpu.numWorkItemsCompleted                    0                       # number of work items this cpu completed
system.cpu.numWorkItemsStarted                      0                       # number of work items this cpu started
system.cpu.num_busy_cycles               58015.999000                       # Number of busy cycles
system.cpu.num_cc_register_reads                 7902                       # number of times the CC registers were read
system.cpu.num_cc_register_writes                4314                       # number of times the CC registers were written
system.cpu.num_conditional_control_insts         1131                       # number of instructions that are conditional controls
system.cpu.num_fp_alu_accesses                      0                       # Number of float alu accesses
system.cpu.num_fp_insts                             0                       # number of float instructions
system.cpu.num_fp_register_reads                    0                       # number of times the floating registers were read
system.cpu.num_fp_register_writes                   0                       # number of times the floating registers were written
system.cpu.num_func_calls                         231                       # number of times a function call or return occured
system.cpu.num_idle_cycles                   0.001000                       # Number of idle cycles
system.cpu.num_int_alu_accesses                 11104                       # Number of integer alu accesses
system.cpu.num_int_insts                        11104                       # number of integer instructions
system.cpu.num_int_register_reads               20850                       # number of times the integer registers were read
system.cpu.num_int_register_writes               8721                       # number of times the integer registers were written
system.cpu.num_load_insts                        1138                       # Number of load instructions
system.cpu.num_mem_refs                          2086                       # number of memory refs
system.cpu.num_store_insts                        948                       # Number of store instructions
system.cpu.num_vec_alu_accesses                     0                       # Number of vector alu accesses
system.cpu.num_vec_insts                            0                       # number of vector instructions
system.cpu.num_vec_register_reads                   0                       # number of times the vector registers were read
system.cpu.num_vec_register_writes                  0                       # number of times the vector registers were written
system.cpu.op_class::No_OpClass                     1      0.01%      0.01% # Class of executed instruction
system.cpu.op_class::IntAlu                      9139     81.28%     81.29% # Class of executed instruction
system.cpu.op_class::IntMult                       11      0.10%     81.39% # Class of executed instruction
system.cpu.op_class::IntDiv                         7      0.06%     81.45% # Class of executed instruction
system.cpu.op_class::FloatAdd                       0      0.00%     81.45% # Class of executed instruction
system.cpu.op_class::FloatCmp                       0      0.00%     81.45% # Class of executed instruction
system.cpu.op_class::FloatCvt                       0      0.00%     81.45% # Class of executed instruction
system.cpu.op_class::FloatMult                      0      0.00%     81.45% # Class of executed instruction
system.cpu.op_class::FloatMultAcc                   0      0.00%     81.45% # Class of executed instruction
system.cpu.op_class::FloatDiv                       0      0.00%     81.45% # Class of executed instruction
system.cpu.op_class::FloatMisc                      0      0.00%     81.45% # Class of executed instruction
system.cpu.op_class::FloatSqrt                      0      0.00%     81.45% # Class of executed instruction
system.cpu.op_class::SimdAdd                        0      0.00%     81.45% # Class of executed instruction
system.cpu.op_class::SimdAddAcc                     0      0.00%     81.45% # Class of executed instruction
system.cpu.op_class::SimdAlu                        0      0.00%     81.45% # Class of executed instruction
system.cpu.op_class::SimdCmp                        0      0.00%     81.45% # Class of executed instruction
system.cpu.op_class::SimdCvt                        0      0.00%     81.45% # Class of executed instruction
system.cpu.op_class::SimdMisc                       0      0.00%     81.45% # Class of executed instruction
system.cpu.op_class::SimdMult                       0      0.00%     81.45% # Class of executed instruction
system.cpu.op_class::SimdMultAcc                    0      0.00%     81.45% # Class of executed instruction
system.cpu.op_class::SimdShift                      0      0.00%     81.45% # Class of executed instruction
system.cpu.op_class::SimdShiftAcc                   0      0.00%     81.45% # Class of executed instruction
system.cpu.op_class::SimdDiv                        0      0.00%     81.45% # Class of executed instruction
system.cpu.op_class::SimdSqrt                       0      0.00%     81.45% # Class of executed instruction
system.cpu.op_class::SimdFloatAdd                   0      0.00%     81.45% # Class of executed instruction
system.cpu.op_class::SimdFloatAlu                   0      0.00%     81.45% # Class of executed instruction
system.cpu.op_class::SimdFloatCmp                   0      0.00%     81.45% # Class of executed instruction
system.cpu.op_class::SimdFloatCvt                   0      0.00%     81.45% # Class of executed instruction
system.cpu.op_class::SimdFloatDiv                   0      0.00%     81.45% # Class of executed instruction
system.cpu.op_class::SimdFloatMisc                  0      0.00%     81.45% # Class of executed instruction
system.cpu.op_class::SimdFloatMult                  0      0.00%     81.45% # Class of executed instruction
system.cpu.op_class::SimdFloatMultAcc               0      0.00%     81.45% # Class of executed instruction
system.cpu.op_class::SimdFloatSqrt                  0      0.00%     81.45% # Class of executed instruction
system.cpu.op_class::SimdReduceAdd                  0      0.00%     81.45% # Class of executed instruction
system.cpu.op_class::SimdReduceAlu                  0      0.00%     81.45% # Class of executed instruction
system.cpu.op_class::SimdReduceCmp                  0      0.00%     81.45% # Class of executed instruction
system.cpu.op_class::SimdFloatReduceAdd             0      0.00%     81.45% # Class of executed instruction
system.cpu.op_class::SimdFloatReduceCmp             0      0.00%     81.45% # Class of executed instruction
system.cpu.op_class::SimdAes                        0      0.00%     81.45% # Class of executed instruction
system.cpu.op_class::SimdAesMix                     0      0.00%     81.45% # Class of executed instruction
system.cpu.op_class::SimdSha1Hash                   0      0.00%     81.45% # Class of executed instruction
system.cpu.op_class::SimdSha1Hash2                  0      0.00%     81.45% # Class of executed instruction
system.cpu.op_class::SimdSha256Hash                 0      0.00%     81.45% # Class of executed instruction
system.cpu.op_class::SimdSha256Hash2                0      0.00%     81.45% # Class of executed instruction
system.cpu.op_class::SimdShaSigma2                  0      0.00%     81.45% # Class of executed instruction
system.cpu.op_class::SimdShaSigma3                  0      0.00%     81.45% # Class of executed instruction
system.cpu.op_class::SimdPredAlu                    0      0.00%     81.45% # Class of executed instruction
system.cpu.op_class::MemRead                     1138     10.12%     91.57% # Class of executed instruction
system.cpu.op_class::MemWrite                     948      8.43%    100.00% # Class of executed instruction
system.cpu.op_class::FloatMemRead                   0      0.00%    100.00% # Class of executed instruction
system.cpu.op_class::FloatMemWrite                  0      0.00%    100.00% # Class of executed instruction
system.cpu.op_class::IprAccess                      0      0.00%    100.00% # Class of executed instruction
system.cpu.op_class::InstPrefetch                   0      0.00%    100.00% # Class of executed instruction
system.cpu.op_class::total                      11244                       # Class of executed instruction
system.cpu.workload.numSyscalls                    11                       # Number of system calls
system.l2bus.snoop_filter.hit_multi_requests            0                       # Number of requests hitting in the snoop filter with multiple (>1) holders of the requested data.
system.l2bus.snoop_filter.hit_multi_snoops            0                       # Number of snoops hitting in the snoop filter with multiple (>1) holders of the requested data.
system.l2bus.snoop_filter.hit_single_requests           60                       # Number of requests hitting in the snoop filter with a single holder of the requested data.
system.l2bus.snoop_filter.hit_single_snoops            0                       # Number of snoops hitting in the snoop filter with a single holder of the requested data.
system.l2bus.snoop_filter.tot_requests            431                       # Total number of requests made to the snoop filter.
system.l2bus.snoop_filter.tot_snoops                0                       # Total number of snoops made to the snoop filter.
system.membus.snoop_filter.hit_multi_requests            0                       # Number of requests hitting in the snoop filter with multiple (>1) holders of the requested data.
system.membus.snoop_filter.hit_multi_snoops            0                       # Number of snoops hitting in the snoop filter with multiple (>1) holders of the requested data.
system.membus.snoop_filter.hit_single_requests            0                       # Number of requests hitting in the snoop filter with a single holder of the requested data.
system.membus.snoop_filter.hit_single_snoops            0                       # Number of snoops hitting in the snoop filter with a single holder of the requested data.
system.membus.snoop_filter.tot_requests           366                       # Total number of requests made to the snoop filter.
system.membus.snoop_filter.tot_snoops               0                       # Total number of snoops made to the snoop filter.
system.clk_domain.clock                          1000                       # Clock period in ticks
system.clk_domain.voltage_domain.voltage            1                       # Voltage in Volts
system.cpu.dcache.demand_hits::.cpu.data         1948                       # number of demand (read+write) hits
system.cpu.dcache.demand_hits::total             1948                       # number of demand (read+write) hits
system.cpu.dcache.overall_hits::.cpu.data         1948                       # number of overall hits
system.cpu.dcache.overall_hits::total            1948                       # number of overall hits
system.cpu.dcache.demand_misses::.cpu.data          136                       # number of demand (read+write) misses
system.cpu.dcache.demand_misses::total            136                       # number of demand (read+write) misses
system.cpu.dcache.overall_misses::.cpu.data          136                       # number of overall misses
system.cpu.dcache.overall_misses::total           136                       # number of overall misses
system.cpu.dcache.demand_miss_latency::.cpu.data     14200000                       # number of demand (read+write) miss cycles
system.cpu.dcache.demand_miss_latency::total     14200000                       # number of demand (read+write) miss cycles
system.cpu.dcache.overall_miss_latency::.cpu.data     14200000                       # number of overall miss cycles
system.cpu.dcache.overall_miss_latency::total     14200000                       # number of overall miss cycles
system.cpu.dcache.demand_accesses::.cpu.data         2084                       # number of demand (read+write) accesses
system.cpu.dcache.demand_accesses::total         2084                       # number of demand (read+write) accesses
system.cpu.dcache.overall_accesses::.cpu.data         2084                       # number of overall (read+write) accesses
system.cpu.dcache.overall_accesses::total         2084                       # number of overall (read+write) accesses
system.cpu.dcache.demand_miss_rate::.cpu.data     0.065259                       # miss rate for demand accesses
system.cpu.dcache.demand_miss_rate::total     0.065259                       # miss rate for demand accesses
system.cpu.dcache.overall_miss_rate::.cpu.data     0.065259                       # miss rate for overall accesses
system.cpu.dcache.overall_miss_rate::total     0.065259                       # miss rate for overall accesses
system.cpu.dcache.demand_avg_miss_latency::.cpu.data 104411.764706                       # average overall miss latency
system.cpu.dcache.demand_avg_miss_latency::total 104411.764706                       # average overall miss latency
system.cpu.dcache.overall_avg_miss_latency::.cpu.data 104411.764706                       # average overall miss latency
system.cpu.dcache.overall_avg_miss_latency::total 104411.764706                       # average overall miss latency
system.cpu.dcache.blocked_cycles::no_mshrs            0                       # number of cycles access was blocked
system.cpu.dcache.blocked_cycles::no_targets            0                       # number of cycles access was blocked
system.cpu.dcache.blocked::no_mshrs                 0                       # number of cycles access was blocked
system.cpu.dcache.blocked::no_targets               0                       # number of cycles access was blocked
system.cpu.dcache.avg_blocked_cycles::no_mshrs          nan                       # average number of cycles each access was blocked
system.cpu.dcache.avg_blocked_cycles::no_targets          nan                       # average number of cycles each access was blocked
system.cpu.dcache.demand_mshr_misses::.cpu.data          136                       # number of demand (read+write) MSHR misses
system.cpu.dcache.demand_mshr_misses::total          136                       # number of demand (read+write) MSHR misses
system.cpu.dcache.overall_mshr_misses::.cpu.data          136                       # number of overall MSHR misses
system.cpu.dcache.overall_mshr_misses::total          136                       # number of overall MSHR misses
system.cpu.dcache.demand_mshr_miss_latency::.cpu.data     13928000                       # number of demand (read+write) MSHR miss cycles
system.cpu.dcache.demand_mshr_miss_latency::total     13928000                       # number of demand (read+write) MSHR miss cycles
system.cpu.dcache.overall_mshr_miss_latency::.cpu.data     13928000                       # number of overall MSHR miss cycles
system.cpu.dcache.overall_mshr_miss_latency::total     13928000                       # number of overall MSHR miss cycles
system.cpu.dcache.demand_mshr_miss_rate::.cpu.data     0.065259                       # mshr miss rate for demand accesses
system.cpu.dcache.demand_mshr_miss_rate::total     0.065259                       # mshr miss rate for demand accesses
system.cpu.dcache.overall_mshr_miss_rate::.cpu.data     0.065259                       # mshr miss rate for overall accesses
system.cpu.dcache.overall_mshr_miss_rate::total     0.065259                       # mshr miss rate for overall accesses
system.cpu.dcache.demand_avg_mshr_miss_latency::.cpu.data 102411.764706                       # average overall mshr miss latency
system.cpu.dcache.demand_avg_mshr_miss_latency::total 102411.764706                       # average overall mshr miss latency
system.cpu.dcache.overall_avg_mshr_miss_latency::.cpu.data 102411.764706                       # average overall mshr miss latency
system.cpu.dcache.overall_avg_mshr_miss_latency::total 102411.764706                       # average overall mshr miss latency
system.cpu.dcache.replacements                      0                       # number of replacements
system.cpu.dcache.ReadReq_hits::.cpu.data         1081                       # number of ReadReq hits
system.cpu.dcache.ReadReq_hits::total            1081                       # number of ReadReq hits
system.cpu.dcache.ReadReq_misses::.cpu.data           57                       # number of ReadReq misses
system.cpu.dcache.ReadReq_misses::total            57                       # number of ReadReq misses
system.cpu.dcache.ReadReq_miss_latency::.cpu.data      6171000                       # number of ReadReq miss cycles
system.cpu.dcache.ReadReq_miss_latency::total      6171000                       # number of ReadReq miss cycles
system.cpu.dcache.ReadReq_accesses::.cpu.data         1138                       # number of ReadReq accesses(hits+misses)
system.cpu.dcache.ReadReq_accesses::total         1138                       # number of ReadReq accesses(hits+misses)
system.cpu.dcache.ReadReq_miss_rate::.cpu.data     0.050088                       # miss rate for ReadReq accesses
system.cpu.dcache.ReadReq_miss_rate::total     0.050088                       # miss rate for ReadReq accesses
system.cpu.dcache.ReadReq_avg_miss_latency::.cpu.data 108263.157895                       # average ReadReq miss latency
system.cpu.dcache.ReadReq_avg_miss_latency::total 108263.157895                       # average ReadReq miss latency
system.cpu.dcache.ReadReq_mshr_misses::.cpu.data           57                       # number of ReadReq MSHR misses
system.cpu.dcache.ReadReq_mshr_misses::total           57                       # number of ReadReq MSHR misses
system.cpu.dcache.ReadReq_mshr_miss_latency::.cpu.data      6057000                       # number of ReadReq MSHR miss cycles
system.cpu.dcache.ReadReq_mshr_miss_latency::total      6057000                       # number of ReadReq MSHR miss cycles
system.cpu.dcache.ReadReq_mshr_miss_rate::.cpu.data     0.050088                       # mshr miss rate for ReadReq accesses
system.cpu.dcache.ReadReq_mshr_miss_rate::total     0.050088                       # mshr miss rate for ReadReq accesses
system.cpu.dcache.ReadReq_avg_mshr_miss_latency::.cpu.data 106263.157895                       # average ReadReq mshr miss latency
system.cpu.dcache.ReadReq_avg_mshr_miss_latency::total 106263.157895                       # average ReadReq mshr miss latency
system.cpu.dcache.WriteReq_hits::.cpu.data          867                       # number of WriteReq hits
system.cpu.dcache.WriteReq_hits::total            867                       # number of WriteReq hits
system.cpu.dcache.WriteReq_misses::.cpu.data           79                       # number of WriteReq misses
system.cpu.dcache.WriteReq_misses::total           79                       # number of WriteReq misses
system.cpu.dcache.WriteReq_miss_latency::.cpu.data      8029000                       # number of WriteReq miss cycles
system.cpu.dcache.WriteReq_miss_latency::total      8029000                       # number of WriteReq miss cycles
system.cpu.dcache.WriteReq_accesses::.cpu.data          946                       # number of WriteReq accesses(hits+misses)
system.cpu.dcache.WriteReq_accesses::total          946                       # number of WriteReq accesses(hits+misses)
system.cpu.dcache.WriteReq_miss_rate::.cpu.data     0.083510                       # miss rate for WriteReq accesses
system.cpu.dcache.WriteReq_miss_rate::total     0.083510                       # miss rate for WriteReq accesses
system.cpu.dcache.WriteReq_avg_miss_latency::.cpu.data 101632.911392                       # average WriteReq miss latency
system.cpu.dcache.WriteReq_avg_miss_latency::total 101632.911392                       # average WriteReq miss latency
system.cpu.dcache.WriteReq_mshr_misses::.cpu.data           79                       # number of WriteReq MSHR misses
system.cpu.dcache.WriteReq_mshr_misses::total           79                       # number of WriteReq MSHR misses
system.cpu.dcache.WriteReq_mshr_miss_latency::.cpu.data      7871000                       # number of WriteReq MSHR miss cycles
system.cpu.dcache.WriteReq_mshr_miss_latency::total      7871000                       # number of WriteReq MSHR miss cycles
system.cpu.dcache.WriteReq_mshr_miss_rate::.cpu.data     0.083510                       # mshr miss rate for WriteReq accesses
system.cpu.dcache.WriteReq_mshr_miss_rate::total     0.083510                       # mshr miss rate for WriteReq accesses
system.cpu.dcache.WriteReq_avg_mshr_miss_latency::.cpu.data 99632.911392                       # average WriteReq mshr miss latency
system.cpu.dcache.WriteReq_avg_mshr_miss_latency::total 99632.911392                       # average WriteReq mshr miss latency
system.cpu.dcache.power_state.pwrStateResidencyTicks::UNDEFINED     58016000                       # Cumulative time (in ticks) in various power states
system.cpu.dcache.tags.tagsinuse            82.668592                       # Cycle average of tags in use
system.cpu.dcache.tags.total_refs                2084                       # Total number of references to valid blocks.
system.cpu.dcache.tags.sampled_refs               136                       # Sample count of references to valid blocks.
system.cpu.dcache.tags.avg_refs             15.323529                       # Average number of references to valid blocks.
system.cpu.dcache.tags.warmup_cycle            220000                       # Cycle when the warmup percentage was hit.
system.cpu.dcache.tags.occ_blocks::.cpu.data    82.668592                       # Average occupied blocks per requestor
system.cpu.dcache.tags.occ_percent::.cpu.data     0.080731                       # Average percentage of cache occupancy
system.cpu.dcache.tags.occ_percent::total     0.080731                       # Average percentage of cache occupancy
system.cpu.dcache.tags.occ_task_id_blocks::1024          136                       # Occupied blocks per task id
system.cpu.dcache.tags.age_task_id_blocks_1024::0           12                       # Occupied blocks per task id
system.cpu.dcache.tags.age_task_id_blocks_1024::1          124                       # Occupied blocks per task id
system.cpu.dcache.tags.occ_task_id_percent::1024     0.132812                       # Percentage of cache occupancy per task id
system.cpu.dcache.tags.tag_accesses              4304                       # Number of tag accesses
system.cpu.dcache.tags.data_accesses             4304                       # Number of data accesses
system.cpu.dcache.tags.power_state.pwrStateResidencyTicks::UNDEFINED     58016000                       # Cumulative time (in ticks) in various power states
system.cpu.dtb.rdAccesses                        1138                       # TLB accesses on read requests
system.cpu.dtb.wrAccesses                         948                       # TLB accesses on write requests
system.cpu.dtb.rdMisses                            11                       # TLB misses on read requests
system.cpu.dtb.wrMisses                             9                       # TLB misses on write requests
system.cpu.dtb.walker.power_state.pwrStateResidencyTicks::UNDEFINED     58016000                       # Cumulative time (in ticks) in various power states
system.cpu.icache.demand_hits::.cpu.inst         7725                       # number of demand (read+write) hits
system.cpu.icache.demand_hits::total             7725                       # number of demand (read+write) hits
system.cpu.icache.overall_hits::.cpu.inst         7725                       # number of overall hits
system.cpu.icache.overall_hits::total            7725                       # number of overall hits
system.cpu.icache.demand_misses::.cpu.inst          236                       # number of demand (read+write) misses
system.cpu.icache.demand_misses::total            236                       # number of demand (read+write) misses
system.cpu.icache.overall_misses::.cpu.inst          236                       # number of overall misses
system.cpu.icache.overall_misses::total           236                       # number of overall misses
system.cpu.icache.demand_miss_latency::.cpu.inst     24470000                       # number of demand (read+write) miss cycles
system.cpu.icache.demand_miss_latency::total     24470000                       # number of demand (read+write) miss cycles
system.cpu.icache.overall_miss_latency::.cpu.inst     24470000                       # number of overall miss cycles
system.cpu.icache.overall_miss_latency::total     24470000                       # number of overall miss cycles
system.cpu.icache.demand_accesses::.cpu.inst         7961                       # number of demand (read+write) accesses
system.cpu.icache.demand_accesses::total         7961                       # number of demand (read+write) accesses
system.cpu.icache.overall_accesses::.cpu.inst         7961                       # number of overall (read+write) accesses
system.cpu.icache.overall_accesses::total         7961                       # number of overall (read+write) accesses
system.cpu.icache.demand_miss_rate::.cpu.inst     0.029645                       # miss rate for demand accesses
system.cpu.icache.demand_miss_rate::total     0.029645                       # miss rate for demand accesses
system.cpu.icache.overall_miss_rate::.cpu.inst     0.029645                       # miss rate for overall accesses
system.cpu.icache.overall_miss_rate::total     0.029645                       # miss rate for overall accesses
system.cpu.icache.demand_avg_miss_latency::.cpu.inst 103686.440678                       # average overall miss latency
system.cpu.icache.demand_avg_miss_latency::total 103686.440678                       # average overall miss latency
system.cpu.icache.overall_avg_miss_latency::.cpu.inst 103686.440678                       # average overall miss latency
system.cpu.icache.overall_avg_miss_latency::total 103686.440678                       # average overall miss latency
system.cpu.icache.blocked_cycles::no_mshrs            0                       # number of cycles access was blocked
system.cpu.icache.blocked_cycles::no_targets            0                       # number of cycles access was blocked
system.cpu.icache.blocked::no_mshrs                 0                       # number of cycles access was blocked
system.cpu.icache.blocked::no_targets               0                       # number of cycles access was blocked
system.cpu.icache.avg_blocked_cycles::no_mshrs          nan                       # average number of cycles each access was blocked
system.cpu.icache.avg_blocked_cycles::no_targets          nan                       # average number of cycles each access was blocked
system.cpu.icache.demand_mshr_misses::.cpu.inst          236                       # number of demand (read+write) MSHR misses
system.cpu.icache.demand_mshr_misses::total          236                       # number of demand (read+write) MSHR misses
system.cpu.icache.overall_mshr_misses::.cpu.inst          236                       # number of overall MSHR misses
system.cpu.icache.overall_mshr_misses::total          236                       # number of overall MSHR misses
system.cpu.icache.demand_mshr_miss_latency::.cpu.inst     23998000                       # number of demand (read+write) MSHR miss cycles
system.cpu.icache.demand_mshr_miss_latency::total     23998000                       # number of demand (read+write) MSHR miss cycles
system.cpu.icache.overall_mshr_miss_latency::.cpu.inst     23998000                       # number of overall MSHR miss cycles
system.cpu.icache.overall_mshr_miss_latency::total     23998000                       # number of overall MSHR miss cycles
system.cpu.icache.demand_mshr_miss_rate::.cpu.inst     0.029645                       # mshr miss rate for demand accesses
system.cpu.icache.demand_mshr_miss_rate::total     0.029645                       # mshr miss rate for demand accesses
system.cpu.icache.overall_mshr_miss_rate::.cpu.inst     0.029645                       # mshr miss rate for overall accesses
system.cpu.icache.overall_mshr_miss_rate::total     0.029645                       # mshr miss rate for overall accesses
system.cpu.icache.demand_avg_mshr_miss_latency::.cpu.inst 101686.440678                       # average overall mshr miss latency
system.cpu.icache.demand_avg_mshr_miss_latency::total 101686.440678                       # average overall mshr miss latency
system.cpu.icache.overall_avg_mshr_miss_latency::.cpu.inst 101686.440678                       # average overall mshr miss latency
system.cpu.icache.overall_avg_mshr_miss_latency::total 101686.440678                       # average overall mshr miss latency
system.cpu.icache.replacements                     59                       # number of replacements
system.cpu.icache.ReadReq_hits::.cpu.inst         7725                       # number of ReadReq hits
system.cpu.icache.ReadReq_hits::total            7725                       # number of ReadReq hits
system.cpu.icache.ReadReq_misses::.cpu.inst          236                       # number of ReadReq misses
system.cpu.icache.ReadReq_misses::total           236                       # number of ReadReq misses
system.cpu.icache.ReadReq_miss_latency::.cpu.inst     24470000                       # number of ReadReq miss cycles
system.cpu.icache.ReadReq_miss_latency::total     24470000                       # number of ReadReq miss cycles
system.cpu.icache.ReadReq_accesses::.cpu.inst         7961                       # number of ReadReq accesses(hits+misses)
system.cpu.icache.ReadReq_accesses::total         7961                       # number of ReadReq accesses(hits+misses)
system.cpu.icache.ReadReq_miss_rate::.cpu.inst     0.029645                       # miss rate for ReadReq accesses
system.cpu.icache.ReadReq_miss_rate::total     0.029645                       # miss rate for ReadReq accesses
system.cpu.icache.ReadReq_avg_miss_latency::.cpu.inst 103686.440678                       # average ReadReq miss latency
system.cpu.icache.ReadReq_avg_miss_latency::total 103686.440678                       # average ReadReq miss latency
system.cpu.icache.ReadReq_mshr_misses::.cpu.inst          236                       # number of ReadReq MSHR misses
system.cpu.icache.ReadReq_mshr_misses::total          236                       # number of ReadReq MSHR misses
system.cpu.icache.ReadReq_mshr_miss_latency::.cpu.inst     23998000                       # number of ReadReq MSHR miss cycles
system.cpu.icache.ReadReq_mshr_miss_latency::total     23998000                       # number of ReadReq MSHR miss cycles
system.cpu.icache.ReadReq_mshr_miss_rate::.cpu.inst     0.029645                       # mshr miss rate for ReadReq accesses
system.cpu.icache.ReadReq_mshr_miss_rate::total     0.029645                       # mshr miss rate for ReadReq accesses
system.cpu.icache.ReadReq_avg_mshr_miss_latency::.cpu.inst 101686.440678                       # average ReadReq mshr miss latency
system.cpu.icache.ReadReq_avg_mshr_miss_latency::total 101686.440678                       # average ReadReq mshr miss latency
system.cpu.icache.power_state.pwrStateResidencyTicks::UNDEFINED     58016000                       # Cumulative time (in ticks) in various power states
system.cpu.icache.tags.tagsinuse            91.237350                       # Cycle average of tags in use
system.cpu.icache.tags.total_refs                7961                       # Total number of references to valid blocks.
system.cpu.icache.tags.sampled_refs               236                       # Sample count of references to valid blocks.
system.cpu.icache.tags.avg_refs             33.733051                       # Average number of references to valid blocks.
system.cpu.icache.tags.warmup_cycle            107000                       # Cycle when the warmup percentage was hit.
system.cpu.icache.tags.occ_blocks::.cpu.inst    91.237350                       # Average occupied blocks per requestor
system.cpu.icache.tags.occ_percent::.cpu.inst     0.356396                       # Average percentage of cache occupancy
system.cpu.icache.tags.occ_percent::total     0.356396                       # Average percentage of cache occupancy
system.cpu.icache.tags.occ_task_id_blocks::1024          177                       # Occupied blocks per task id
system.cpu.icache.tags.age_task_id_blocks_1024::0           44                       # Occupied blocks per task id
system.cpu.icache.tags.age_task_id_blocks_1024::1          133                       # Occupied blocks per task id
system.cpu.icache.tags.occ_task_id_percent::1024     0.691406                       # Percentage of cache occupancy per task id
system.cpu.icache.tags.tag_accesses             16158                       # Number of tag accesses
system.cpu.icache.tags.data_accesses            16158                       # Number of data accesses
system.cpu.icache.tags.power_state.pwrStateResidencyTicks::UNDEFINED     58016000                       # Cumulative time (in ticks) in various power states
system.cpu.interrupts.clk_domain.clock          16000                       # Clock period in ticks
system.cpu.itb.rdAccesses                           0                       # TLB accesses on read requests
system.cpu.itb.wrAccesses                        7961                       # TLB accesses on write requests
system.cpu.itb.rdMisses                             0                       # TLB misses on read requests
system.cpu.itb.wrMisses                            37                       # TLB misses on write requests
system.cpu.itb.walker.power_state.pwrStateResidencyTicks::UNDEFINED     58016000                       # Cumulative time (in ticks) in various power states
system.cpu.power_state.pwrStateResidencyTicks::ON     58016000                       # Cumulative time (in ticks) in various power states
system.cpu.thread_0.numInsts                        0                       # Number of Instructions committed
system.cpu.thread_0.numOps                          0                       # Number of Ops committed
system.cpu.thread_0.numMemRefs                      0                       # Number of Memory References
system.l2bus.trans_dist::ReadResp                 293                       # Transaction distribution
system.l2bus.trans_dist::CleanEvict                59                       # Transaction distribution
system.l2bus.trans_dist::ReadExReq                 79                       # Transaction distribution
system.l2bus.trans_dist::ReadExResp                79                       # Transaction distribution
system.l2bus.trans_dist::ReadSharedReq            293                       # Transaction distribution
system.l2bus.pkt_count_system.cpu.icache.mem_side_port::system.l2cache.cpu_side_port          531                       # Packet count per connected requestor and responder (bytes)
system.l2bus.pkt_count_system.cpu.dcache.mem_side_port::system.l2cache.cpu_side_port          272                       # Packet count per connected requestor and responder (bytes)
system.l2bus.pkt_count::total                     803                       # Packet count per connected requestor and responder (bytes)
system.l2bus.pkt_size_system.cpu.icache.mem_side_port::system.l2cache.cpu_side_port        15104                       # Cumulative packet size per connected requestor and responder (bytes)
system.l2bus.pkt_size_system.cpu.dcache.mem_side_port::system.l2cache.cpu_side_port         8704                       # Cumulative packet size per connected requestor and responder (bytes)
system.l2bus.pkt_size::total                    23808                       # Cumulative packet size per connected requestor and responder (bytes)
system.l2bus.snoops                                 0                       # Total snoops (count)
system.l2bus.snoopTraffic                           0                       # Total snoop traffic (bytes)
system.l2bus.snoop_fanout::samples                372                       # Request fanout histogram
system.l2bus.snoop_fanout::mean              0.002688                       # Request fanout histogram
system.l2bus.snoop_fanout::stdev             0.051848                       # Request fanout histogram
system.l2bus.snoop_fanout::underflows               0      0.00%      0.00% # Request fanout histogram
system.l2bus.snoop_fanout::0                      371     99.73%     99.73% # Request fanout histogram
system.l2bus.snoop_fanout::1                        1      0.27%    100.00% # Request fanout histogram
system.l2bus.snoop_fanout::2                        0      0.00%    100.00% # Request fanout histogram
system.l2bus.snoop_fanout::overflows                0      0.00%    100.00% # Request fanout histogram
system.l2bus.snoop_fanout::min_value                0                       # Request fanout histogram
system.l2bus.snoop_fanout::max_value                1                       # Request fanout histogram
system.l2bus.snoop_fanout::total                  372                       # Request fanout histogram
system.l2bus.power_state.pwrStateResidencyTicks::UNDEFINED     58016000                       # Cumulative time (in ticks) in various power states
system.l2bus.reqLayer0.occupancy               431000                       # Layer occupancy (ticks)
system.l2bus.reqLayer0.utilization                0.7                       # Layer utilization (%)
system.l2bus.respLayer0.occupancy              708000                       # Layer occupancy (ticks)
system.l2bus.respLayer0.utilization               1.2                       # Layer utilization (%)
system.l2bus.respLayer1.occupancy              408000                       # Layer occupancy (ticks)
system.l2bus.respLayer1.utilization               0.7                       # Layer utilization (%)
system.l2cache.demand_hits::.cpu.inst               6                       # number of demand (read+write) hits
system.l2cache.demand_hits::total                   6                       # number of demand (read+write) hits
system.l2cache.overall_hits::.cpu.inst              6                       # number of overall hits
system.l2cache.overall_hits::total                  6                       # number of overall hits
system.l2cache.demand_misses::.cpu.inst           230                       # number of demand (read+write) misses
system.l2cache.demand_misses::.cpu.data           136                       # number of demand (read+write) misses
system.l2cache.demand_misses::total               366                       # number of demand (read+write) misses
system.l2cache.overall_misses::.cpu.inst          230                       # number of overall misses
system.l2cache.overall_misses::.cpu.data          136                       # number of overall misses
system.l2cache.overall_misses::total              366                       # number of overall misses
system.l2cache.demand_miss_latency::.cpu.inst     23162000                       # number of demand (read+write) miss cycles
system.l2cache.demand_miss_latency::.cpu.data     13520000                       # number of demand (read+write) miss cycles
system.l2cache.demand_miss_latency::total     36682000                       # number of demand (read+write) miss cycles
system.l2cache.overall_miss_latency::.cpu.inst     23162000                       # number of overall miss cycles
system.l2cache.overall_miss_latency::.cpu.data     13520000                       # number of overall miss cycles
system.l2cache.overall_miss_latency::total     36682000                       # number of overall miss cycles
system.l2cache.demand_accesses::.cpu.inst          236                       # number of demand (read+write) accesses
system.l2cache.demand_accesses::.cpu.data          136                       # number of demand (read+write) accesses
system.l2cache.demand_accesses::total             372                       # number of demand (read+write) accesses
system.l2cache.overall_accesses::.cpu.inst          236                       # number of overall (read+write) accesses
system.l2cache.overall_accesses::.cpu.data          136                       # number of overall (read+write) accesses
system.l2cache.overall_accesses::total            372                       # number of overall (read+write) accesses
system.l2cache.demand_miss_rate::.cpu.inst     0.974576                       # miss rate for demand accesses
system.l2cache.demand_miss_rate::.cpu.data            1                       # miss rate for demand accesses
system.l2cache.demand_miss_rate::total       0.983871                       # miss rate for demand accesses
system.l2cache.overall_miss_rate::.cpu.inst     0.974576                       # miss rate for overall accesses
system.l2cache.overall_miss_rate::.cpu.data            1                       # miss rate for overall accesses
system.l2cache.overall_miss_rate::total      0.983871                       # miss rate for overall accesses
system.l2cache.demand_avg_miss_latency::.cpu.inst 100704.347826                       # average overall miss latency
system.l2cache.demand_avg_miss_latency::.cpu.data 99411.764706                       # average overall miss latency
system.l2cache.demand_avg_miss_latency::total 100224.043716                       # average overall miss latency
system.l2cache.overall_avg_miss_latency::.cpu.inst 100704.347826                       # average overall miss latency
system.l2cache.overall_avg_miss_latency::.cpu.data 99411.764706                       # average overall miss latency
system.l2cache.overall_avg_miss_latency::total 100224.043716                       # average overall miss latency
system.l2cache.blocked_cycles::no_mshrs             0                       # number of cycles access was blocked
system.l2cache.blocked_cycles::no_targets            0                       # number of cycles access was blocked
system.l2cache.blocked::no_mshrs                    0                       # number of cycles access was blocked
system.l2cache.blocked::no_targets                  0                       # number of cycles access was blocked
system.l2cache.avg_blocked_cycles::no_mshrs          nan                       # average number of cycles each access was blocked
system.l2cache.avg_blocked_cycles::no_targets          nan                       # average number of cycles each access was blocked
system.l2cache.demand_mshr_misses::.cpu.inst          230                       # number of demand (read+write) MSHR misses
system.l2cache.demand_mshr_misses::.cpu.data          136                       # number of demand (read+write) MSHR misses
system.l2cache.demand_mshr_misses::total          366                       # number of demand (read+write) MSHR misses
system.l2cache.overall_mshr_misses::.cpu.inst          230                       # number of overall MSHR misses
system.l2cache.overall_mshr_misses::.cpu.data          136                       # number of overall MSHR misses
system.l2cache.overall_mshr_misses::total          366                       # number of overall MSHR misses
system.l2cache.demand_mshr_miss_latency::.cpu.inst     18562000                       # number of demand (read+write) MSHR miss cycles
system.l2cache.demand_mshr_miss_latency::.cpu.data     10800000                       # number of demand (read+write) MSHR miss cycles
system.l2cache.demand_mshr_miss_latency::total     29362000                       # number of demand (read+write) MSHR miss cycles
system.l2cache.overall_mshr_miss_latency::.cpu.inst     18562000                       # number of overall MSHR miss cycles
system.l2cache.overall_mshr_miss_latency::.cpu.data     10800000                       # number of overall MSHR miss cycles
system.l2cache.overall_mshr_miss_latency::total     29362000                       # number of overall MSHR miss cycles
system.l2cache.demand_mshr_miss_rate::.cpu.inst     0.974576                       # mshr miss rate for demand accesses
system.l2cache.demand_mshr_miss_rate::.cpu.data            1                       # mshr miss rate for demand accesses
system.l2cache.demand_mshr_miss_rate::total     0.983871                       # mshr miss rate for demand accesses
system.l2cache.overall_mshr_miss_rate::.cpu.inst     0.974576                       # mshr miss rate for overall accesses
system.l2cache.overall_mshr_miss_rate::.cpu.data            1                       # mshr miss rate for overall accesses
system.l2cache.overall_mshr_miss_rate::total     0.983871                       # mshr miss rate for overall accesses
system.l2cache.demand_avg_mshr_miss_latency::.cpu.inst 80704.347826                       # average overall mshr miss latency
system.l2cache.demand_avg_mshr_miss_latency::.cpu.data 79411.764706                       # average overall mshr miss latency
system.l2cache.demand_avg_mshr_miss_latency::total 80224.043716                       # average overall mshr miss latency
system.l2cache.overall_avg_mshr_miss_latency::.cpu.inst 80704.347826                       # average overall mshr miss latency
system.l2cache.overall_avg_mshr_miss_latency::.cpu.data 79411.764706                       # average overall mshr miss latency
system.l2cache.overall_avg_mshr_miss_latency::total 80224.043716                       # average overall mshr miss latency
system.l2cache.replacements                         0                       # number of replacements
system.l2cache.ReadExReq_misses::.cpu.data           79                       # number of ReadExReq misses
system.l2cache.ReadExReq_misses::total             79                       # number of ReadExReq misses
system.l2cache.ReadExReq_miss_latency::.cpu.data      7634000                       # number of ReadExReq miss cycles
system.l2cache.ReadExReq_miss_latency::total      7634000                       # number of ReadExReq miss cycles
system.l2cache.ReadExReq_accesses::.cpu.data           79                       # number of ReadExReq accesses(hits+misses)
system.l2cache.ReadExReq_accesses::total           79                       # number of ReadExReq accesses(hits+misses)
system.l2cache.ReadExReq_miss_rate::.cpu.data            1                       # miss rate for ReadExReq accesses
system.l2cache.ReadExReq_miss_rate::total            1                       # miss rate for ReadExReq accesses
system.l2cache.ReadExReq_avg_miss_latency::.cpu.data 96632.911392                       # average ReadExReq miss latency
system.l2cache.ReadExReq_avg_miss_latency::total 96632.911392                       # average ReadExReq miss latency
system.l2cache.ReadExReq_mshr_misses::.cpu.data           79                       # number of ReadExReq MSHR misses
system.l2cache.ReadExReq_mshr_misses::total           79                       # number of ReadExReq MSHR misses
system.l2cache.ReadExReq_mshr_miss_latency::.cpu.data      6054000                       # number of ReadExReq MSHR miss cycles
system.l2cache.ReadExReq_mshr_miss_latency::total      6054000                       # number of ReadExReq MSHR miss cycles
system.l2cache.ReadExReq_mshr_miss_rate::.cpu.data            1                       # mshr miss rate for ReadExReq accesses
system.l2cache.ReadExReq_mshr_miss_rate::total            1                       # mshr miss rate for ReadExReq accesses
system.l2cache.ReadExReq_avg_mshr_miss_latency::.cpu.data 76632.911392                       # average ReadExReq mshr miss latency
system.l2cache.ReadExReq_avg_mshr_miss_latency::total 76632.911392                       # average ReadExReq mshr miss latency
system.l2cache.ReadSharedReq_hits::.cpu.inst            6                       # number of ReadSharedReq hits
system.l2cache.ReadSharedReq_hits::total            6                       # number of ReadSharedReq hits
system.l2cache.ReadSharedReq_misses::.cpu.inst          230                       # number of ReadSharedReq misses
system.l2cache.ReadSharedReq_misses::.cpu.data           57                       # number of ReadSharedReq misses
system.l2cache.ReadSharedReq_misses::total          287                       # number of ReadSharedReq misses
system.l2cache.ReadSharedReq_miss_latency::.cpu.inst     23162000                       # number of ReadSharedReq miss cycles
system.l2cache.ReadSharedReq_miss_latency::.cpu.data      5886000                       # number of ReadSharedReq miss cycles
system.l2cache.ReadSharedReq_miss_latency::total     29048000                       # number of ReadSharedReq miss cycles
system.l2cache.ReadSharedReq_accesses::.cpu.inst          236                       # number of ReadSharedReq accesses(hits+misses)
system.l2cache.ReadSharedReq_accesses::.cpu.data           57                       # number of ReadSharedReq accesses(hits+misses)
system.l2cache.ReadSharedReq_accesses::total          293                       # number of ReadSharedReq accesses(hits+misses)
system.l2cache.ReadSharedReq_miss_rate::.cpu.inst     0.974576                       # miss rate for ReadSharedReq accesses
system.l2cache.ReadSharedReq_miss_rate::.cpu.data            1                       # miss rate for ReadSharedReq accesses
system.l2cache.ReadSharedReq_miss_rate::total     0.979522                       # miss rate for ReadSharedReq accesses
system.l2cache.ReadSharedReq_avg_miss_latency::.cpu.inst 100704.347826                       # average ReadSharedReq miss latency
system.l2cache.ReadSharedReq_avg_miss_latency::.cpu.data 103263.157895                       # average ReadSharedReq miss latency
system.l2cache.ReadSharedReq_avg_miss_latency::total 101212.543554                       # average ReadSharedReq miss latency
system.l2cache.ReadSharedReq_mshr_misses::.cpu.inst          230                       # number of ReadSharedReq MSHR misses
system.l2cache.ReadSharedReq_mshr_misses::.cpu.data           57                       # number of ReadSharedReq MSHR misses
system.l2cache.ReadSharedReq_mshr_misses::total          287                       # number of ReadSharedReq MSHR misses
system.l2cache.ReadSharedReq_mshr_miss_latency::.cpu.inst     18562000                       # number of ReadSharedReq MSHR miss cycles
system.l2cache.ReadSharedReq_mshr_miss_latency::.cpu.data      4746000                       # number of ReadSharedReq MSHR miss cycles
system.l2cache.ReadSharedReq_mshr_miss_latency::total     23308000                       # number of ReadSharedReq MSHR miss cycles
system.l2cache.ReadSharedReq_mshr_miss_rate::.cpu.inst     0.974576                       # mshr miss rate for ReadSharedReq accesses
system.l2cache.ReadSharedReq_mshr_miss_rate::.cpu.data            1                       # mshr miss rate for ReadSharedReq accesses
system.l2cache.ReadSharedReq_mshr_miss_rate::total     0.979522                       # mshr miss rate for ReadSharedReq accesses
system.l2cache.ReadSharedReq_avg_mshr_miss_latency::.cpu.inst 80704.347826                       # average ReadSharedReq mshr miss latency
system.l2cache.ReadSharedReq_avg_mshr_miss_latency::.cpu.data 83263.157895                       # average ReadSharedReq mshr miss latency
system.l2cache.ReadSharedReq_avg_mshr_miss_latency::total 81212.543554                       # average ReadSharedReq mshr miss latency
system.l2cache.power_state.pwrStateResidencyTicks::UNDEFINED     58016000                       # Cumulative time (in ticks) in various power states
system.l2cache.tags.tagsinuse              189.984852                       # Cycle average of tags in use
system.l2cache.tags.total_refs                    431                       # Total number of references to valid blocks.
system.l2cache.tags.sampled_refs                  366                       # Sample count of references to valid blocks.
system.l2cache.tags.avg_refs                 1.177596                       # Average number of references to valid blocks.
system.l2cache.tags.warmup_cycle                86000                       # Cycle when the warmup percentage was hit.
system.l2cache.tags.occ_blocks::.cpu.inst   107.267032                       # Average occupied blocks per requestor
system.l2cache.tags.occ_blocks::.cpu.data    82.717820                       # Average occupied blocks per requestor
system.l2cache.tags.occ_percent::.cpu.inst     0.003274                       # Average percentage of cache occupancy
system.l2cache.tags.occ_percent::.cpu.data     0.002524                       # Average percentage of cache occupancy
system.l2cache.tags.occ_percent::total       0.005798                       # Average percentage of cache occupancy
system.l2cache.tags.occ_task_id_blocks::1024          366                       # Occupied blocks per task id
system.l2cache.tags.age_task_id_blocks_1024::0           56                       # Occupied blocks per task id
system.l2cache.tags.age_task_id_blocks_1024::1          310                       # Occupied blocks per task id
system.l2cache.tags.occ_task_id_percent::1024     0.011169                       # Percentage of cache occupancy per task id
system.l2cache.tags.tag_accesses                 3814                       # Number of tag accesses
system.l2cache.tags.data_accesses                3814                       # Number of data accesses
system.l2cache.tags.power_state.pwrStateResidencyTicks::UNDEFINED     58016000                       # Cumulative time (in ticks) in various power states
system.mem_ctrl.avgPriority_.cpu.inst::samples       230.00                       # Average QoS priority value for accepted requests
system.mem_ctrl.avgPriority_.cpu.data::samples       136.00                       # Average QoS priority value for accepted requests
system.mem_ctrl.priorityMinLatency       0.000000018750                       # per QoS priority minimum request to response latency (s)
system.mem_ctrl.priorityMaxLatency       0.000000561500                       # per QoS priority maximum request to response latency (s)
system.mem_ctrl.numReadWriteTurnArounds             0                       # Number of turnarounds from READ to WRITE
system.mem_ctrl.numWriteReadTurnArounds             0                       # Number of turnarounds from WRITE to READ
system.mem_ctrl.numStayReadState                  746                       # Number of times bus staying in READ state
system.mem_ctrl.numStayWriteState                   0                       # Number of times bus staying in WRITE state
system.mem_ctrl.readReqs                          366                       # Number of read requests accepted
system.mem_ctrl.writeReqs                           0                       # Number of write requests accepted
system.mem_ctrl.readBursts                        366                       # Number of controller read bursts, including those serviced by the write queue
system.mem_ctrl.writeBursts                         0                       # Number of controller write bursts, including those merged in the write queue
system.mem_ctrl.servicedByWrQ                       0                       # Number of controller read bursts serviced by the write queue
system.mem_ctrl.mergedWrBursts                      0                       # Number of controller write bursts merged with an existing one
system.mem_ctrl.neitherReadNorWriteReqs             0                       # Number of requests that are neither read nor write
system.mem_ctrl.avgRdQLen                        1.00                       # Average read queue length when enqueuing
system.mem_ctrl.avgWrQLen                        0.00                       # Average write queue length when enqueuing
system.mem_ctrl.numRdRetry                          0                       # Number of times read queue was full causing retry
system.mem_ctrl.numWrRetry                          0                       # Number of times write queue was full causing retry
system.mem_ctrl.readPktSize::0                      0                       # Read request sizes (log2)
system.mem_ctrl.readPktSize::1                      0                       # Read request sizes (log2)
system.mem_ctrl.readPktSize::2                      0                       # Read request sizes (log2)
system.mem_ctrl.readPktSize::3                      0                       # Read request sizes (log2)
system.mem_ctrl.readPktSize::4                      0                       # Read request sizes (log2)
system.mem_ctrl.readPktSize::5                      0                       # Read request sizes (log2)
system.mem_ctrl.readPktSize::6                    366                       # Read request sizes (log2)
system.mem_ctrl.writePktSize::0                     0                       # Write request sizes (log2)
system.mem_ctrl.writePktSize::1                     0                       # Write request sizes (log2)
system.mem_ctrl.writePktSize::2                     0                       # Write request sizes (log2)
system.mem_ctrl.writePktSize::3                     0                       # Write request sizes (log2)
system.mem_ctrl.writePktSize::4                     0                       # Write request sizes (log2)
system.mem_ctrl.writePktSize::5                     0                       # Write request sizes (log2)
system.mem_ctrl.writePktSize::6                     0                       # Write request sizes (log2)
system.mem_ctrl.rdQLenPdf::0                      366                       # What read queue length does an incoming req see
system.mem_ctrl.rdQLenPdf::1                        0                       # What read queue length does an incoming req see
system.mem_ctrl.rdQLenPdf::2                        0                       # What read queue length does an incoming req see
system.mem_ctrl.rdQLenPdf::3                        0                       # What read queue length does an incoming req see
system.mem_ctrl.rdQLenPdf::4                        0                       # What read queue length does an incoming req see
system.mem_ctrl.rdQLenPdf::5                        0                       # What read queue length does an incoming req see
system.mem_ctrl.rdQLenPdf::6                        0                       # What read queue length does an incoming req see
system.mem_ctrl.rdQLenPdf::7                        0                       # What read queue length does an incoming req see
system.mem_ctrl.rdQLenPdf::8                        0                       # What read queue length does an incoming req see
system.mem_ctrl.rdQLenPdf::9                        0                       # What read queue length does an incoming req see
system.mem_ctrl.rdQLenPdf::10                       0                       # What read queue length does an incoming req see
system.mem_ctrl.rdQLenPdf::11                       0                       # What read queue length does an incoming req see
system.mem_ctrl.rdQLenPdf::12                       0                       # What read queue length does an incoming req see
system.mem_ctrl.rdQLenPdf::13                       0                       # What read queue length does an incoming req see
system.mem_ctrl.rdQLenPdf::14                       0                       # What read queue length does an incoming req see
system.mem_ctrl.rdQLenPdf::15                       0                       # What read queue length does an incoming req see
system.mem_ctrl.rdQLenPdf::16                       0                       # What read queue length does an incoming req see
system.mem_ctrl.rdQLenPdf::17                       0                       # What read queue length does an incoming req see
system.mem_ctrl.rdQLenPdf::18                       0                       # What read queue length does an incoming req see
system.mem_ctrl.rdQLenPdf::19                       0                       # What read queue length does an incoming req see
system.mem_ctrl.rdQLenPdf::20                       0                       # What read queue length does an incoming req see
system.mem_ctrl.rdQLenPdf::21                       0                       # What read queue length does an incoming req see
system.mem_ctrl.rdQLenPdf::22                       0                       # What read queue length does an incoming req see
system.mem_ctrl.rdQLenPdf::23                       0                       # What read queue length does an incoming req see
system.mem_ctrl.rdQLenPdf::24                       0                       # What read queue length does an incoming req see
system.mem_ctrl.rdQLenPdf::25                       0                       # What read queue length does an incoming req see
system.mem_ctrl.rdQLenPdf::26                       0                       # What read queue length does an incoming req see
system.mem_ctrl.rdQLenPdf::27                       0                       # What read queue length does an incoming req see
system.mem_ctrl.rdQLenPdf::28                       0                       # What read queue length does an incoming req see
system.mem_ctrl.rdQLenPdf::29                       0                       # What read queue length does an incoming req see
system.mem_ctrl.rdQLenPdf::30                       0                       # What read queue length does an incoming req see
system.mem_ctrl.rdQLenPdf::31                       0                       # What read queue length does an incoming req see
system.mem_ctrl.wrQLenPdf::0                        0                       # What write queue length does an incoming req see
system.mem_ctrl.wrQLenPdf::1                        0                       # What write queue length does an incoming req see
system.mem_ctrl.wrQLenPdf::2                        0                       # What write queue length does an incoming req see
system.mem_ctrl.wrQLenPdf::3                        0                       # What write queue length does an incoming req see
system.mem_ctrl.wrQLenPdf::4                        0                       # What write queue length does an incoming req see
system.mem_ctrl.wrQLenPdf::5                        0                       # What write queue length does an incoming req see
system.mem_ctrl.wrQLenPdf::6                        0                       # What write queue length does an incoming req see
system.mem_ctrl.wrQLenPdf::7                        0                       # What write queue length does an incoming req see
system.mem_ctrl.wrQLenPdf::8                        0                       # What write queue length does an incoming req see
system.mem_ctrl.wrQLenPdf::9                        0                       # What write queue length does an incoming req see
system.mem_ctrl.wrQLenPdf::10                       0                       # What write queue length does an incoming req see
system.mem_ctrl.wrQLenPdf::11                       0                       # What write queue length does an incoming req see
system.mem_ctrl.wrQLenPdf::12                       0                       # What write queue length does an incoming req see
system.mem_ctrl.wrQLenPdf::13                       0                       # What write queue length does an incoming req see
system.mem_ctrl.wrQLenPdf::14                       0                       # What write queue length does an incoming req see
system.mem_ctrl.wrQLenPdf::15                       0                       # What write queue length does an incoming req see
system.mem_ctrl.wrQLenPdf::16                       0                       # What write queue length does an incoming req see
system.mem_ctrl.wrQLenPdf::17                       0                       # What write queue length does an incoming req see
system.mem_ctrl.wrQLenPdf::18                       0                       # What write queue length does an incoming req see
system.mem_ctrl.wrQLenPdf::19                       0                       # What write queue length does an incoming req see
system.mem_ctrl.wrQLenPdf::20                       0                       # What write queue length does an incoming req see
system.mem_ctrl.wrQLenPdf::21                       0                       # What write queue length does an incoming req see
system.mem_ctrl.wrQLenPdf::22                       0                       # What write queue length does an incoming req see
system.mem_ctrl.wrQLenPdf::23                       0                       # What write queue length does an incoming req see
system.mem_ctrl.wrQLenPdf::24                       0                       # What write queue length does an incoming req see
system.mem_ctrl.wrQLenPdf::25                       0                       # What write queue length does an incoming req see
system.mem_ctrl.wrQLenPdf::26                       0                       # What write queue length does an incoming req see
system.mem_ctrl.wrQLenPdf::27                       0                       # What write queue length does an incoming req see
system.mem_ctrl.wrQLenPdf::28                       0                       # What write queue length does an incoming req see
system.mem_ctrl.wrQLenPdf::29                       0                       # What write queue length does an incoming req see
system.mem_ctrl.wrQLenPdf::30                       0                       # What write queue length does an incoming req see
system.mem_ctrl.wrQLenPdf::31                       0                       # What write queue length does an incoming req see
system.mem_ctrl.wrQLenPdf::32                       0                       # What write queue length does an incoming req see
system.mem_ctrl.wrQLenPdf::33                       0                       # What write queue length does an incoming req see
system.mem_ctrl.wrQLenPdf::34                       0                       # What write queue length does an incoming req see
system.mem_ctrl.wrQLenPdf::35                       0                       # What write queue length does an incoming req see
system.mem_ctrl.wrQLenPdf::36                       0                       # What write queue length does an incoming req see
system.mem_ctrl.wrQLenPdf::37                       0                       # What write queue length does an incoming req see
system.mem_ctrl.wrQLenPdf::38                       0                       # What write queue length does an incoming req see
system.mem_ctrl.wrQLenPdf::39                       0                       # What write queue length does an incoming req see
system.mem_ctrl.wrQLenPdf::40                       0                       # What write queue length does an incoming req see
system.mem_ctrl.wrQLenPdf::41                       0                       # What write queue length does an incoming req see
system.mem_ctrl.wrQLenPdf::42                       0                       # What write queue length does an incoming req see
system.mem_ctrl.wrQLenPdf::43                       0                       # What write queue length does an incoming req see
system.mem_ctrl.wrQLenPdf::44                       0                       # What write queue length does an incoming req see
system.mem_ctrl.wrQLenPdf::45                       0                       # What write queue length does an incoming req see
system.mem_ctrl.wrQLenPdf::46                       0                       # What write queue length does an incoming req see
system.mem_ctrl.wrQLenPdf::47                       0                       # What write queue length does an incoming req see
system.mem_ctrl.wrQLenPdf::48                       0                       # What write queue length does an incoming req see
system.mem_ctrl.wrQLenPdf::49                       0                       # What write queue length does an incoming req see
system.mem_ctrl.wrQLenPdf::50                       0                       # What write queue length does an incoming req see
system.mem_ctrl.wrQLenPdf::51                       0                       # What write queue length does an incoming req see
system.mem_ctrl.wrQLenPdf::52                       0                       # What write queue length does an incoming req see
system.mem_ctrl.wrQLenPdf::53                       0                       # What write queue length does an incoming req see
system.mem_ctrl.wrQLenPdf::54                       0                       # What write queue length does an incoming req see
system.mem_ctrl.wrQLenPdf::55                       0                       # What write queue length does an incoming req see
system.mem_ctrl.wrQLenPdf::56                       0                       # What write queue length does an incoming req see
system.mem_ctrl.wrQLenPdf::57                       0                       # What write queue length does an incoming req see
system.mem_ctrl.wrQLenPdf::58                       0                       # What write queue length does an incoming req see
system.mem_ctrl.wrQLenPdf::59                       0                       # What write queue length does an incoming req see
system.mem_ctrl.wrQLenPdf::60                       0                       # What write queue length does an incoming req see
system.mem_ctrl.wrQLenPdf::61                       0                       # What write queue length does an incoming req see
system.mem_ctrl.wrQLenPdf::62                       0                       # What write queue length does an incoming req see
system.mem_ctrl.wrQLenPdf::63                       0                       # What write queue length does an incoming req see
system.mem_ctrl.bytesReadWrQ                        0                       # Total number of bytes read from write queue
system.mem_ctrl.bytesReadSys                    23424                       # Total read bytes from the system interface side
system.mem_ctrl.bytesWrittenSys                     0                       # Total written bytes from the system interface side
system.mem_ctrl.avgRdBWSys                     403.75                       # Average system read bandwidth in MiByte/s
system.mem_ctrl.avgWrBWSys                       0.00                       # Average system write bandwidth in MiByte/s
system.mem_ctrl.totGap                       57885000                       # Total gap between requests
system.mem_ctrl.avgGap                      158155.74                       # Average gap between requests
system.mem_ctrl.requestorReadBytes::.cpu.inst        14720                       # Per-requestor bytes read from memory
system.mem_ctrl.requestorReadBytes::.cpu.data         8704                       # Per-requestor bytes read from memory
system.mem_ctrl.requestorReadRate::.cpu.inst 253723110.865967988968                       # Per-requestor bytes read from memory rate (Bytes/sec)
system.mem_ctrl.requestorReadRate::.cpu.data 150027578.599007159472                       # Per-requestor bytes read from memory rate (Bytes/sec)
system.mem_ctrl.requestorReadAccesses::.cpu.inst          230                       # Per-requestor read serviced memory accesses
system.mem_ctrl.requestorReadAccesses::.cpu.data          136                       # Per-requestor read serviced memory accesses
system.mem_ctrl.requestorReadTotalLat::.cpu.inst      6753750                       # Per-requestor read total memory access latency
system.mem_ctrl.requestorReadTotalLat::.cpu.data      3809750                       # Per-requestor read total memory access latency
system.mem_ctrl.requestorReadAvgLat::.cpu.inst     29364.13                       # Per-requestor read average memory access latency
system.mem_ctrl.requestorReadAvgLat::.cpu.data     28012.87                       # Per-requestor read average memory access latency
system.mem_ctrl.dram.bytes_read::.cpu.inst        14720                       # Number of bytes read from this memory
system.mem_ctrl.dram.bytes_read::.cpu.data         8704                       # Number of bytes read from this memory
system.mem_ctrl.dram.bytes_read::total          23424                       # Number of bytes read from this memory
system.mem_ctrl.dram.bytes_inst_read::.cpu.inst        14720                       # Number of instructions bytes read from this memory
system.mem_ctrl.dram.bytes_inst_read::total        14720                       # Number of instructions bytes read from this memory
system.mem_ctrl.dram.num_reads::.cpu.inst          230                       # Number of read requests responded to by this memory
system.mem_ctrl.dram.num_reads::.cpu.data          136                       # Number of read requests responded to by this memory
system.mem_ctrl.dram.num_reads::total             366                       # Number of read requests responded to by this memory
system.mem_ctrl.dram.bw_read::.cpu.inst     253723111                       # Total read bandwidth from this memory (bytes/s)
system.mem_ctrl.dram.bw_read::.cpu.data     150027579                       # Total read bandwidth from this memory (bytes/s)
system.mem_ctrl.dram.bw_read::total         403750689                       # Total read bandwidth from this memory (bytes/s)
system.mem_ctrl.dram.bw_inst_read::.cpu.inst    253723111                       # Instruction read bandwidth from this memory (bytes/s)
system.mem_ctrl.dram.bw_inst_read::total    253723111                       # Instruction read bandwidth from this memory (bytes/s)
system.mem_ctrl.dram.bw_total::.cpu.inst    253723111                       # Total bandwidth to/from this memory (bytes/s)
system.mem_ctrl.dram.bw_total::.cpu.data    150027579                       # Total bandwidth to/from this memory (bytes/s)
system.mem_ctrl.dram.bw_total::total        403750689                       # Total bandwidth to/from this memory (bytes/s)
system.mem_ctrl.dram.readBursts                   366                       # Number of DRAM read bursts
system.mem_ctrl.dram.writeBursts                    0                       # Number of DRAM write bursts
system.mem_ctrl.dram.perBankRdBursts::0            30                       # Per bank write bursts
system.mem_ctrl.dram.perBankRdBursts::1             1                       # Per bank write bursts
system.mem_ctrl.dram.perBankRdBursts::2             5                       # Per bank write bursts
system.mem_ctrl.dram.perBankRdBursts::3             8                       # Per bank write bursts
system.mem_ctrl.dram.perBankRdBursts::4            44                       # Per bank write bursts
system.mem_ctrl.dram.perBankRdBursts::5            40                       # Per bank write bursts
system.mem_ctrl.dram.perBankRdBursts::6            13                       # Per bank write bursts
system.mem_ctrl.dram.perBankRdBursts::7            24                       # Per bank write bursts
system.mem_ctrl.dram.perBankRdBursts::8            17                       # Per bank write bursts
system.mem_ctrl.dram.perBankRdBursts::9            71                       # Per bank write bursts
system.mem_ctrl.dram.perBankRdBursts::10           63                       # Per bank write bursts
system.mem_ctrl.dram.perBankRdBursts::11           14                       # Per bank write bursts
system.mem_ctrl.dram.perBankRdBursts::12            2                       # Per bank write bursts
system.mem_ctrl.dram.perBankRdBursts::13           14                       # Per bank write bursts
system.mem_ctrl.dram.perBankRdBursts::14            4                       # Per bank write bursts
system.mem_ctrl.dram.perBankRdBursts::15           16                       # Per bank write bursts
system.mem_ctrl.dram.perBankWrBursts::0             0                       # Per bank write bursts
system.mem_ctrl.dram.perBankWrBursts::1             0                       # Per bank write bursts
system.mem_ctrl.dram.perBankWrBursts::2             0                       # Per bank write bursts
system.mem_ctrl.dram.perBankWrBursts::3             0                       # Per bank write bursts
system.mem_ctrl.dram.perBankWrBursts::4             0                       # Per bank write bursts
system.mem_ctrl.dram.perBankWrBursts::5             0                       # Per bank write bursts
system.mem_ctrl.dram.perBankWrBursts::6             0                       # Per bank write bursts
system.mem_ctrl.dram.perBankWrBursts::7             0                       # Per bank write bursts
system.mem_ctrl.dram.perBankWrBursts::8             0                       # Per bank write bursts
system.mem_ctrl.dram.perBankWrBursts::9             0                       # Per bank write bursts
system.mem_ctrl.dram.perBankWrBursts::10            0                       # Per bank write bursts
system.mem_ctrl.dram.perBankWrBursts::11            0                       # Per bank write bursts
system.mem_ctrl.dram.perBankWrBursts::12            0                       # Per bank write bursts
system.mem_ctrl.dram.perBankWrBursts::13            0                       # Per bank write bursts
system.mem_ctrl.dram.perBankWrBursts::14            0                       # Per bank write bursts
system.mem_ctrl.dram.perBankWrBursts::15            0                       # Per bank write bursts
system.mem_ctrl.dram.totQLat                  3701000                       # Total ticks spent queuing
system.mem_ctrl.dram.totBusLat                1830000                       # Total ticks spent in databus transfers
system.mem_ctrl.dram.totMemAccLat            10563500                       # Total ticks spent from burst creation until serviced by the DRAM
system.mem_ctrl.dram.avgQLat                 10112.02                       # Average queueing delay per DRAM burst
system.mem_ctrl.dram.avgBusLat                5000.00                       # Average bus latency per DRAM burst
system.mem_ctrl.dram.avgMemAccLat            28862.02                       # Average memory access latency per DRAM burst
system.mem_ctrl.dram.readRowHits                  249                       # Number of row buffer hits during reads
system.mem_ctrl.dram.writeRowHits                   0                       # Number of row buffer hits during writes
system.mem_ctrl.dram.readRowHitRate             68.03                       # Row buffer hit rate for reads
system.mem_ctrl.dram.writeRowHitRate              nan                       # Row buffer hit rate for writes
system.mem_ctrl.dram.bytesPerActivate::samples          110                       # Bytes accessed per row activation
system.mem_ctrl.dram.bytesPerActivate::mean   198.981818                       # Bytes accessed per row activation
system.mem_ctrl.dram.bytesPerActivate::gmean   133.005731                       # Bytes accessed per row activation
system.mem_ctrl.dram.bytesPerActivate::stdev   211.882215                       # Bytes accessed per row activation
system.mem_ctrl.dram.bytesPerActivate::0-127           53     48.18%     48.18% # Bytes accessed per row activation
system.mem_ctrl.dram.bytesPerActivate::128-255           23     20.91%     69.09% # Bytes accessed per row activation
system.mem_ctrl.dram.bytesPerActivate::256-383           16     14.55%     83.64% # Bytes accessed per row activation
system.mem_ctrl.dram.bytesPerActivate::384-511            7      6.36%     90.00% # Bytes accessed per row activation
system.mem_ctrl.dram.bytesPerActivate::512-639            4      3.64%     93.64% # Bytes accessed per row activation
system.mem_ctrl.dram.bytesPerActivate::640-767            4      3.64%     97.27% # Bytes accessed per row activation
system.mem_ctrl.dram.bytesPerActivate::1024-1151            3      2.73%    100.00% # Bytes accessed per row activation
system.mem_ctrl.dram.bytesPerActivate::total          110                       # Bytes accessed per row activation
system.mem_ctrl.dram.bytesRead                  23424                       # Total number of bytes read from DRAM
system.mem_ctrl.dram.bytesWritten                   0                       # Total number of bytes written to DRAM
system.mem_ctrl.dram.avgRdBW               403.750689                       # Average DRAM read bandwidth in MiBytes/s
system.mem_ctrl.dram.avgWrBW                        0                       # Average DRAM write bandwidth in MiBytes/s
system.mem_ctrl.dram.peakBW                  12800.00                       # Theoretical peak bandwidth in MiByte/s
system.mem_ctrl.dram.busUtil                     3.15                       # Data bus utilization in percentage
system.mem_ctrl.dram.busUtilRead                 3.15                       # Data bus utilization in percentage for reads
system.mem_ctrl.dram.busUtilWrite                0.00                       # Data bus utilization in percentage for writes
system.mem_ctrl.dram.pageHitRate                68.03                       # Row buffer hit rate, read and write combined
system.mem_ctrl.dram.power_state.pwrStateResidencyTicks::UNDEFINED     58016000                       # Cumulative time (in ticks) in various power states
system.mem_ctrl.dram.rank0.actEnergy           307020                       # Energy for activate commands per rank (pJ)
system.mem_ctrl.dram.rank0.preEnergy           144210                       # Energy for precharge commands per rank (pJ)
system.mem_ctrl.dram.rank0.readEnergy         1178100                       # Energy for read commands per rank (pJ)
system.mem_ctrl.dram.rank0.writeEnergy              0                       # Energy for write commands per rank (pJ)
system.mem_ctrl.dram.rank0.refreshEnergy 4302480.000000                       # Energy for refresh commands per rank (pJ)
system.mem_ctrl.dram.rank0.actBackEnergy     23905800                       # Energy for active background per rank (pJ)
system.mem_ctrl.dram.rank0.preBackEnergy      2147040                       # Energy for precharge background per rank (pJ)
system.mem_ctrl.dram.rank0.actPowerDownEnergy            0                       # Energy for active power-down per rank (pJ)
system.mem_ctrl.dram.rank0.prePowerDownEnergy            0                       # Energy for precharge power-down per rank (pJ)
system.mem_ctrl.dram.rank0.selfRefreshEnergy            0                       # Energy for self refresh per rank (pJ)
system.mem_ctrl.dram.rank0.totalEnergy       31984650                       # Total energy per rank (pJ)
system.mem_ctrl.dram.rank0.averagePower    551.307398                       # Core power per rank (mW)
system.mem_ctrl.dram.rank0.totalIdleTime            0                       # Total Idle time Per DRAM Rank
system.mem_ctrl.dram.rank0.pwrStateTime::IDLE      5396000                       # Time in different power states
system.mem_ctrl.dram.rank0.pwrStateTime::REF      1820000                       # Time in different power states
system.mem_ctrl.dram.rank0.pwrStateTime::SREF            0                       # Time in different power states
system.mem_ctrl.dram.rank0.pwrStateTime::PRE_PDN            0                       # Time in different power states
system.mem_ctrl.dram.rank0.pwrStateTime::ACT     50800000                       # Time in different power states
system.mem_ctrl.dram.rank0.pwrStateTime::ACT_PDN            0                       # Time in different power states
system.mem_ctrl.dram.rank1.actEnergy           528360                       # Energy for activate commands per rank (pJ)
system.mem_ctrl.dram.rank1.preEnergy           273240                       # Energy for precharge commands per rank (pJ)
system.mem_ctrl.dram.rank1.readEnergy         1435140                       # Energy for read commands per rank (pJ)
system.mem_ctrl.dram.rank1.writeEnergy              0                       # Energy for write commands per rank (pJ)
system.mem_ctrl.dram.rank1.refreshEnergy 4302480.000000                       # Energy for refresh commands per rank (pJ)
system.mem_ctrl.dram.rank1.actBackEnergy     25294890                       # Energy for active background per rank (pJ)
system.mem_ctrl.dram.rank1.preBackEnergy       977280                       # Energy for precharge background per rank (pJ)
system.mem_ctrl.dram.rank1.actPowerDownEnergy            0                       # Energy for active power-down per rank (pJ)
system.mem_ctrl.dram.rank1.prePowerDownEnergy            0                       # Energy for precharge power-down per rank (pJ)
system.mem_ctrl.dram.rank1.selfRefreshEnergy            0                       # Energy for self refresh per rank (pJ)
system.mem_ctrl.dram.rank1.totalEnergy       32811390                       # Total energy per rank (pJ)
system.mem_ctrl.dram.rank1.averagePower    565.557605                       # Core power per rank (mW)
system.mem_ctrl.dram.rank1.totalIdleTime            0                       # Total Idle time Per DRAM Rank
system.mem_ctrl.dram.rank1.pwrStateTime::IDLE      2309500                       # Time in different power states
system.mem_ctrl.dram.rank1.pwrStateTime::REF      1820000                       # Time in different power states
system.mem_ctrl.dram.rank1.pwrStateTime::SREF            0                       # Time in different power states
system.mem_ctrl.dram.rank1.pwrStateTime::PRE_PDN            0                       # Time in different power states
system.mem_ctrl.dram.rank1.pwrStateTime::ACT     53886500                       # Time in different power states
system.mem_ctrl.dram.rank1.pwrStateTime::ACT_PDN            0                       # Time in different power states
system.mem_ctrl.power_state.pwrStateResidencyTicks::UNDEFINED     58016000                       # Cumulative time (in ticks) in various power states
system.membus.trans_dist::ReadResp                287                       # Transaction distribution
system.membus.trans_dist::ReadExReq                79                       # Transaction distribution
system.membus.trans_dist::ReadExResp               79                       # Transaction distribution
system.membus.trans_dist::ReadSharedReq           287                       # Transaction distribution
system.membus.pkt_count_system.l2cache.mem_side_port::system.mem_ctrl.port          732                       # Packet count per connected requestor and responder (bytes)
system.membus.pkt_count_system.l2cache.mem_side_port::total          732                       # Packet count per connected requestor and responder (bytes)
system.membus.pkt_count::total                    732                       # Packet count per connected requestor and responder (bytes)
system.membus.pkt_size_system.l2cache.mem_side_port::system.mem_ctrl.port        23424                       # Cumulative packet size per connected requestor and responder (bytes)
system.membus.pkt_size_system.l2cache.mem_side_port::total        23424                       # Cumulative packet size per connected requestor and responder (bytes)
system.membus.pkt_size::total                   23424                       # Cumulative packet size per connected requestor and responder (bytes)
system.membus.snoops                                0                       # Total snoops (count)
system.membus.snoopTraffic                          0                       # Total snoop traffic (bytes)
system.membus.snoop_fanout::samples               366                       # Request fanout histogram
system.membus.snoop_fanout::mean                    0                       # Request fanout histogram
system.membus.snoop_fanout::stdev                   0                       # Request fanout histogram
system.membus.snoop_fanout::underflows              0      0.00%      0.00% # Request fanout histogram
system.membus.snoop_fanout::0                     366    100.00%    100.00% # Request fanout histogram
system.membus.snoop_fanout::1                       0      0.00%    100.00% # Request fanout histogram
system.membus.snoop_fanout::overflows               0      0.00%    100.00% # Request fanout histogram
system.membus.snoop_fanout::min_value               0                       # Request fanout histogram
system.membus.snoop_fanout::max_value               0                       # Request fanout histogram
system.membus.snoop_fanout::total                 366                       # Request fanout histogram
system.membus.power_state.pwrStateResidencyTicks::UNDEFINED     58016000                       # Cumulative time (in ticks) in various power states
system.membus.reqLayer2.occupancy              366000                       # Layer occupancy (ticks)
system.membus.reqLayer2.utilization               0.6                       # Layer utilization (%)
system.membus.respLayer0.occupancy            1962500                       # Layer occupancy (ticks)
system.membus.respLayer0.utilization              3.4                       # Layer utilization (%)

---------- End Simulation Statistics   ----------
