
---------- Begin Simulation Statistics ----------
final_tick                               1712533080000                       # Number of ticks from beginning of simulation (restored from checkpoints and never reset)
host_inst_rate                                 423142                       # Simulator instruction rate (inst/s)
host_mem_usage                                 664128                       # Number of bytes of host memory used
host_op_rate                                   776519                       # Simulator op (including micro ops) rate (op/s)
host_seconds                                   702.32                       # Real time elapsed on the host
host_tick_rate                             2438394645                       # Simulator tick rate (ticks/s)
sim_freq                                 1000000000000                       # Frequency of simulated ticks
sim_insts                                   297181000                       # Number of instructions simulated
sim_ops                                     545364574                       # Number of ops (including micro ops) simulated
sim_seconds                                  1.712533                       # Number of seconds simulated
sim_ticks                                1712533080000                       # Number of ticks simulated
system.cpu.Branches                          49473269                       # Number of branches fetched
system.cpu.committedInsts                   297181000                       # Number of instructions committed
system.cpu.committedOps                     545364574                       # Number of ops (including micro ops) committed
system.cpu.idle_fraction                     0.000000                       # Percentage of idle cycles
system.cpu.not_idle_fraction                 1.000000                       # Percentage of non-idle cycles
system.cpu.numCycles                       1712533080                       # number of cpu cycles simulated
system.cpu.numWorkItemsCompleted                    0                       # number of work items this cpu completed
system.cpu.numWorkItemsStarted                      0                       # number of work items this cpu started
system.cpu.num_busy_cycles               1712533079.999000                       # Number of busy cycles
system.cpu.num_cc_register_reads            252086589                       # number of times the CC registers were read
system.cpu.num_cc_register_writes           180867048                       # number of times the CC registers were written
system.cpu.num_conditional_control_insts     49270097                       # number of instructions that are conditional controls
system.cpu.num_fp_alu_accesses              184508630                       # Number of float alu accesses
system.cpu.num_fp_insts                     184508630                       # number of float instructions
system.cpu.num_fp_register_reads            225216959                       # number of times the floating registers were read
system.cpu.num_fp_register_writes           180499649                       # number of times the floating registers were written
system.cpu.num_func_calls                       81592                       # number of times a function call or return occured
system.cpu.num_idle_cycles                   0.001000                       # Number of idle cycles
system.cpu.num_int_alu_accesses             435906653                       # Number of integer alu accesses
system.cpu.num_int_insts                    435906653                       # number of integer instructions
system.cpu.num_int_register_reads           778693050                       # number of times the integer registers were read
system.cpu.num_int_register_writes          309382709                       # number of times the integer registers were written
system.cpu.num_load_insts                   111390475                       # Number of load instructions
system.cpu.num_mem_refs                     116747142                       # number of memory refs
system.cpu.num_store_insts                    5356667                       # Number of store instructions
system.cpu.num_vec_alu_accesses                     0                       # Number of vector alu accesses
system.cpu.num_vec_insts                            0                       # number of vector instructions
system.cpu.num_vec_register_reads                   0                       # number of times the vector registers were read
system.cpu.num_vec_register_writes                  0                       # number of times the vector registers were written
system.cpu.op_class::No_OpClass                710625      0.13%      0.13% # Class of executed instruction
system.cpu.op_class::IntAlu                 322694290     59.17%     59.30% # Class of executed instruction
system.cpu.op_class::IntMult                    30102      0.01%     59.31% # Class of executed instruction
system.cpu.op_class::IntDiv                       623      0.00%     59.31% # Class of executed instruction
system.cpu.op_class::FloatAdd                33737834      6.19%     65.49% # Class of executed instruction
system.cpu.op_class::FloatCmp                       0      0.00%     65.49% # Class of executed instruction
system.cpu.op_class::FloatCvt                       0      0.00%     65.49% # Class of executed instruction
system.cpu.op_class::FloatMult                      0      0.00%     65.49% # Class of executed instruction
system.cpu.op_class::FloatMultAcc                   0      0.00%     65.49% # Class of executed instruction
system.cpu.op_class::FloatDiv                       0      0.00%     65.49% # Class of executed instruction
system.cpu.op_class::FloatMisc                      0      0.00%     65.49% # Class of executed instruction
system.cpu.op_class::FloatSqrt                      0      0.00%     65.49% # Class of executed instruction
system.cpu.op_class::SimdAdd                    76762      0.01%     65.51% # Class of executed instruction
system.cpu.op_class::SimdAddAcc                     0      0.00%     65.51% # Class of executed instruction
system.cpu.op_class::SimdAlu                    60252      0.01%     65.52% # Class of executed instruction
system.cpu.op_class::SimdCmp                       24      0.00%     65.52% # Class of executed instruction
system.cpu.op_class::SimdCvt                     1170      0.00%     65.52% # Class of executed instruction
system.cpu.op_class::SimdMisc                  125019      0.02%     65.54% # Class of executed instruction
system.cpu.op_class::SimdMult                       0      0.00%     65.54% # Class of executed instruction
system.cpu.op_class::SimdMultAcc                    0      0.00%     65.54% # Class of executed instruction
system.cpu.op_class::SimdShift                      0      0.00%     65.54% # Class of executed instruction
system.cpu.op_class::SimdShiftAcc                   0      0.00%     65.54% # Class of executed instruction
system.cpu.op_class::SimdDiv                        0      0.00%     65.54% # Class of executed instruction
system.cpu.op_class::SimdSqrt                       0      0.00%     65.54% # Class of executed instruction
system.cpu.op_class::SimdFloatAdd            35512541      6.51%     72.05% # Class of executed instruction
system.cpu.op_class::SimdFloatAlu                   0      0.00%     72.05% # Class of executed instruction
system.cpu.op_class::SimdFloatCmp                   0      0.00%     72.05% # Class of executed instruction
system.cpu.op_class::SimdFloatCvt              101637      0.02%     72.07% # Class of executed instruction
system.cpu.op_class::SimdFloatDiv                 835      0.00%     72.07% # Class of executed instruction
system.cpu.op_class::SimdFloatMisc                  0      0.00%     72.07% # Class of executed instruction
system.cpu.op_class::SimdFloatMult           35565797      6.52%     78.59% # Class of executed instruction
system.cpu.op_class::SimdFloatMultAcc               0      0.00%     78.59% # Class of executed instruction
system.cpu.op_class::SimdFloatSqrt                 32      0.00%     78.59% # Class of executed instruction
system.cpu.op_class::SimdReduceAdd                  0      0.00%     78.59% # Class of executed instruction
system.cpu.op_class::SimdReduceAlu                  0      0.00%     78.59% # Class of executed instruction
system.cpu.op_class::SimdReduceCmp                  0      0.00%     78.59% # Class of executed instruction
system.cpu.op_class::SimdFloatReduceAdd             0      0.00%     78.59% # Class of executed instruction
system.cpu.op_class::SimdFloatReduceCmp             0      0.00%     78.59% # Class of executed instruction
system.cpu.op_class::SimdAes                        0      0.00%     78.59% # Class of executed instruction
system.cpu.op_class::SimdAesMix                     0      0.00%     78.59% # Class of executed instruction
system.cpu.op_class::SimdSha1Hash                   0      0.00%     78.59% # Class of executed instruction
system.cpu.op_class::SimdSha1Hash2                  0      0.00%     78.59% # Class of executed instruction
system.cpu.op_class::SimdSha256Hash                 0      0.00%     78.59% # Class of executed instruction
system.cpu.op_class::SimdSha256Hash2                0      0.00%     78.59% # Class of executed instruction
system.cpu.op_class::SimdShaSigma2                  0      0.00%     78.59% # Class of executed instruction
system.cpu.op_class::SimdShaSigma3                  0      0.00%     78.59% # Class of executed instruction
system.cpu.op_class::SimdPredAlu                    0      0.00%     78.59% # Class of executed instruction
system.cpu.op_class::MemRead                 39670292      7.27%     85.87% # Class of executed instruction
system.cpu.op_class::MemWrite                 1421536      0.26%     86.13% # Class of executed instruction
system.cpu.op_class::FloatMemRead            71720183     13.15%     99.28% # Class of executed instruction
system.cpu.op_class::FloatMemWrite            3935131      0.72%    100.00% # Class of executed instruction
system.cpu.op_class::IprAccess                      0      0.00%    100.00% # Class of executed instruction
system.cpu.op_class::InstPrefetch                   0      0.00%    100.00% # Class of executed instruction
system.cpu.op_class::total                  545364685                       # Class of executed instruction
system.cpu.workload.numSyscalls                    87                       # Number of system calls
system.l2bus.snoop_filter.hit_multi_requests            0                       # Number of requests hitting in the snoop filter with multiple (>1) holders of the requested data.
system.l2bus.snoop_filter.hit_multi_snoops            0                       # Number of snoops hitting in the snoop filter with multiple (>1) holders of the requested data.
system.l2bus.snoop_filter.hit_single_requests      6626203                       # Number of requests hitting in the snoop filter with a single holder of the requested data.
system.l2bus.snoop_filter.hit_single_snoops      1368374                       # Number of snoops hitting in the snoop filter with a single holder of the requested data.
system.l2bus.snoop_filter.tot_requests       13253686                       # Total number of requests made to the snoop filter.
system.l2bus.snoop_filter.tot_snoops          1368374                       # Total number of snoops made to the snoop filter.
system.membus.snoop_filter.hit_multi_requests            0                       # Number of requests hitting in the snoop filter with multiple (>1) holders of the requested data.
system.membus.snoop_filter.hit_multi_snoops            0                       # Number of snoops hitting in the snoop filter with multiple (>1) holders of the requested data.
system.membus.snoop_filter.hit_single_requests      6566806                       # Number of requests hitting in the snoop filter with a single holder of the requested data.
system.membus.snoop_filter.hit_single_snoops            0                       # Number of snoops hitting in the snoop filter with a single holder of the requested data.
system.membus.snoop_filter.tot_requests      13135988                       # Total number of requests made to the snoop filter.
system.membus.snoop_filter.tot_snoops               0                       # Total number of snoops made to the snoop filter.
system.clk_domain.clock                          1000                       # Clock period in ticks
system.clk_domain.voltage_domain.voltage            1                       # Voltage in Volts
system.cpu.dcache.demand_hits::.cpu.data    110150253                       # number of demand (read+write) hits
system.cpu.dcache.demand_hits::total        110150253                       # number of demand (read+write) hits
system.cpu.dcache.overall_hits::.cpu.data    110150253                       # number of overall hits
system.cpu.dcache.overall_hits::total       110150253                       # number of overall hits
system.cpu.dcache.demand_misses::.cpu.data      6608747                       # number of demand (read+write) misses
system.cpu.dcache.demand_misses::total        6608747                       # number of demand (read+write) misses
system.cpu.dcache.overall_misses::.cpu.data      6608747                       # number of overall misses
system.cpu.dcache.overall_misses::total       6608747                       # number of overall misses
system.cpu.dcache.demand_miss_latency::.cpu.data 664541998000                       # number of demand (read+write) miss cycles
system.cpu.dcache.demand_miss_latency::total 664541998000                       # number of demand (read+write) miss cycles
system.cpu.dcache.overall_miss_latency::.cpu.data 664541998000                       # number of overall miss cycles
system.cpu.dcache.overall_miss_latency::total 664541998000                       # number of overall miss cycles
system.cpu.dcache.demand_accesses::.cpu.data    116759000                       # number of demand (read+write) accesses
system.cpu.dcache.demand_accesses::total    116759000                       # number of demand (read+write) accesses
system.cpu.dcache.overall_accesses::.cpu.data    116759000                       # number of overall (read+write) accesses
system.cpu.dcache.overall_accesses::total    116759000                       # number of overall (read+write) accesses
system.cpu.dcache.demand_miss_rate::.cpu.data     0.056602                       # miss rate for demand accesses
system.cpu.dcache.demand_miss_rate::total     0.056602                       # miss rate for demand accesses
system.cpu.dcache.overall_miss_rate::.cpu.data     0.056602                       # miss rate for overall accesses
system.cpu.dcache.overall_miss_rate::total     0.056602                       # miss rate for overall accesses
system.cpu.dcache.demand_avg_miss_latency::.cpu.data 100554.915781                       # average overall miss latency
system.cpu.dcache.demand_avg_miss_latency::total 100554.915781                       # average overall miss latency
system.cpu.dcache.overall_avg_miss_latency::.cpu.data 100554.915781                       # average overall miss latency
system.cpu.dcache.overall_avg_miss_latency::total 100554.915781                       # average overall miss latency
system.cpu.dcache.blocked_cycles::no_mshrs            0                       # number of cycles access was blocked
system.cpu.dcache.blocked_cycles::no_targets            0                       # number of cycles access was blocked
system.cpu.dcache.blocked::no_mshrs                 0                       # number of cycles access was blocked
system.cpu.dcache.blocked::no_targets               0                       # number of cycles access was blocked
system.cpu.dcache.avg_blocked_cycles::no_mshrs          nan                       # average number of cycles each access was blocked
system.cpu.dcache.avg_blocked_cycles::no_targets          nan                       # average number of cycles each access was blocked
system.cpu.dcache.writebacks::.writebacks       372458                       # number of writebacks
system.cpu.dcache.writebacks::total            372458                       # number of writebacks
system.cpu.dcache.demand_mshr_misses::.cpu.data      6608747                       # number of demand (read+write) MSHR misses
system.cpu.dcache.demand_mshr_misses::total      6608747                       # number of demand (read+write) MSHR misses
system.cpu.dcache.overall_mshr_misses::.cpu.data      6608747                       # number of overall MSHR misses
system.cpu.dcache.overall_mshr_misses::total      6608747                       # number of overall MSHR misses
system.cpu.dcache.demand_mshr_miss_latency::.cpu.data 651324504000                       # number of demand (read+write) MSHR miss cycles
system.cpu.dcache.demand_mshr_miss_latency::total 651324504000                       # number of demand (read+write) MSHR miss cycles
system.cpu.dcache.overall_mshr_miss_latency::.cpu.data 651324504000                       # number of overall MSHR miss cycles
system.cpu.dcache.overall_mshr_miss_latency::total 651324504000                       # number of overall MSHR miss cycles
system.cpu.dcache.demand_mshr_miss_rate::.cpu.data     0.056602                       # mshr miss rate for demand accesses
system.cpu.dcache.demand_mshr_miss_rate::total     0.056602                       # mshr miss rate for demand accesses
system.cpu.dcache.overall_mshr_miss_rate::.cpu.data     0.056602                       # mshr miss rate for overall accesses
system.cpu.dcache.overall_mshr_miss_rate::total     0.056602                       # mshr miss rate for overall accesses
system.cpu.dcache.demand_avg_mshr_miss_latency::.cpu.data 98554.915781                       # average overall mshr miss latency
system.cpu.dcache.demand_avg_mshr_miss_latency::total 98554.915781                       # average overall mshr miss latency
system.cpu.dcache.overall_avg_mshr_miss_latency::.cpu.data 98554.915781                       # average overall mshr miss latency
system.cpu.dcache.overall_avg_mshr_miss_latency::total 98554.915781                       # average overall mshr miss latency
system.cpu.dcache.replacements                6607723                       # number of replacements
system.cpu.dcache.ReadReq_hits::.cpu.data    104904682                       # number of ReadReq hits
system.cpu.dcache.ReadReq_hits::total       104904682                       # number of ReadReq hits
system.cpu.dcache.ReadReq_misses::.cpu.data      6490776                       # number of ReadReq misses
system.cpu.dcache.ReadReq_misses::total       6490776                       # number of ReadReq misses
system.cpu.dcache.ReadReq_miss_latency::.cpu.data 652474238000                       # number of ReadReq miss cycles
system.cpu.dcache.ReadReq_miss_latency::total 652474238000                       # number of ReadReq miss cycles
system.cpu.dcache.ReadReq_accesses::.cpu.data    111395458                       # number of ReadReq accesses(hits+misses)
system.cpu.dcache.ReadReq_accesses::total    111395458                       # number of ReadReq accesses(hits+misses)
system.cpu.dcache.ReadReq_miss_rate::.cpu.data     0.058268                       # miss rate for ReadReq accesses
system.cpu.dcache.ReadReq_miss_rate::total     0.058268                       # miss rate for ReadReq accesses
system.cpu.dcache.ReadReq_avg_miss_latency::.cpu.data 100523.302299                       # average ReadReq miss latency
system.cpu.dcache.ReadReq_avg_miss_latency::total 100523.302299                       # average ReadReq miss latency
system.cpu.dcache.ReadReq_mshr_misses::.cpu.data      6490776                       # number of ReadReq MSHR misses
system.cpu.dcache.ReadReq_mshr_misses::total      6490776                       # number of ReadReq MSHR misses
system.cpu.dcache.ReadReq_mshr_miss_latency::.cpu.data 639492686000                       # number of ReadReq MSHR miss cycles
system.cpu.dcache.ReadReq_mshr_miss_latency::total 639492686000                       # number of ReadReq MSHR miss cycles
system.cpu.dcache.ReadReq_mshr_miss_rate::.cpu.data     0.058268                       # mshr miss rate for ReadReq accesses
system.cpu.dcache.ReadReq_mshr_miss_rate::total     0.058268                       # mshr miss rate for ReadReq accesses
system.cpu.dcache.ReadReq_avg_mshr_miss_latency::.cpu.data 98523.302299                       # average ReadReq mshr miss latency
system.cpu.dcache.ReadReq_avg_mshr_miss_latency::total 98523.302299                       # average ReadReq mshr miss latency
system.cpu.dcache.WriteReq_hits::.cpu.data      5245571                       # number of WriteReq hits
system.cpu.dcache.WriteReq_hits::total        5245571                       # number of WriteReq hits
system.cpu.dcache.WriteReq_misses::.cpu.data       117971                       # number of WriteReq misses
system.cpu.dcache.WriteReq_misses::total       117971                       # number of WriteReq misses
system.cpu.dcache.WriteReq_miss_latency::.cpu.data  12067760000                       # number of WriteReq miss cycles
system.cpu.dcache.WriteReq_miss_latency::total  12067760000                       # number of WriteReq miss cycles
system.cpu.dcache.WriteReq_accesses::.cpu.data      5363542                       # number of WriteReq accesses(hits+misses)
system.cpu.dcache.WriteReq_accesses::total      5363542                       # number of WriteReq accesses(hits+misses)
system.cpu.dcache.WriteReq_miss_rate::.cpu.data     0.021995                       # miss rate for WriteReq accesses
system.cpu.dcache.WriteReq_miss_rate::total     0.021995                       # miss rate for WriteReq accesses
system.cpu.dcache.WriteReq_avg_miss_latency::.cpu.data 102294.292665                       # average WriteReq miss latency
system.cpu.dcache.WriteReq_avg_miss_latency::total 102294.292665                       # average WriteReq miss latency
system.cpu.dcache.WriteReq_mshr_misses::.cpu.data       117971                       # number of WriteReq MSHR misses
system.cpu.dcache.WriteReq_mshr_misses::total       117971                       # number of WriteReq MSHR misses
system.cpu.dcache.WriteReq_mshr_miss_latency::.cpu.data  11831818000                       # number of WriteReq MSHR miss cycles
system.cpu.dcache.WriteReq_mshr_miss_latency::total  11831818000                       # number of WriteReq MSHR miss cycles
system.cpu.dcache.WriteReq_mshr_miss_rate::.cpu.data     0.021995                       # mshr miss rate for WriteReq accesses
system.cpu.dcache.WriteReq_mshr_miss_rate::total     0.021995                       # mshr miss rate for WriteReq accesses
system.cpu.dcache.WriteReq_avg_mshr_miss_latency::.cpu.data 100294.292665                       # average WriteReq mshr miss latency
system.cpu.dcache.WriteReq_avg_mshr_miss_latency::total 100294.292665                       # average WriteReq mshr miss latency
system.cpu.dcache.power_state.pwrStateResidencyTicks::UNDEFINED 1712533080000                       # Cumulative time (in ticks) in various power states
system.cpu.dcache.tags.tagsinuse          1023.810312                       # Cycle average of tags in use
system.cpu.dcache.tags.total_refs           116759000                       # Total number of references to valid blocks.
system.cpu.dcache.tags.sampled_refs           6608747                       # Sample count of references to valid blocks.
system.cpu.dcache.tags.avg_refs             17.667343                       # Average number of references to valid blocks.
system.cpu.dcache.tags.warmup_cycle            224000                       # Cycle when the warmup percentage was hit.
system.cpu.dcache.tags.occ_blocks::.cpu.data  1023.810312                       # Average occupied blocks per requestor
system.cpu.dcache.tags.occ_percent::.cpu.data     0.999815                       # Average percentage of cache occupancy
system.cpu.dcache.tags.occ_percent::total     0.999815                       # Average percentage of cache occupancy
system.cpu.dcache.tags.occ_task_id_blocks::1024         1024                       # Occupied blocks per task id
system.cpu.dcache.tags.age_task_id_blocks_1024::0           27                       # Occupied blocks per task id
system.cpu.dcache.tags.age_task_id_blocks_1024::1          110                       # Occupied blocks per task id
system.cpu.dcache.tags.age_task_id_blocks_1024::2          807                       # Occupied blocks per task id
system.cpu.dcache.tags.age_task_id_blocks_1024::3           80                       # Occupied blocks per task id
system.cpu.dcache.tags.occ_task_id_percent::1024            1                       # Percentage of cache occupancy per task id
system.cpu.dcache.tags.tag_accesses         240126747                       # Number of tag accesses
system.cpu.dcache.tags.data_accesses        240126747                       # Number of data accesses
system.cpu.dcache.tags.power_state.pwrStateResidencyTicks::UNDEFINED 1712533080000                       # Cumulative time (in ticks) in various power states
system.cpu.dtb.rdAccesses                   111395459                       # TLB accesses on read requests
system.cpu.dtb.wrAccesses                     5363565                       # TLB accesses on write requests
system.cpu.dtb.rdMisses                        115974                       # TLB misses on read requests
system.cpu.dtb.wrMisses                          1462                       # TLB misses on write requests
system.cpu.dtb.walker.power_state.pwrStateResidencyTicks::UNDEFINED 1712533080000                       # Cumulative time (in ticks) in various power states
system.cpu.icache.demand_hits::.cpu.inst    413236088                       # number of demand (read+write) hits
system.cpu.icache.demand_hits::total        413236088                       # number of demand (read+write) hits
system.cpu.icache.overall_hits::.cpu.inst    413236088                       # number of overall hits
system.cpu.icache.overall_hits::total       413236088                       # number of overall hits
system.cpu.icache.demand_misses::.cpu.inst        18736                       # number of demand (read+write) misses
system.cpu.icache.demand_misses::total          18736                       # number of demand (read+write) misses
system.cpu.icache.overall_misses::.cpu.inst        18736                       # number of overall misses
system.cpu.icache.overall_misses::total         18736                       # number of overall misses
system.cpu.icache.demand_miss_latency::.cpu.inst   1246978000                       # number of demand (read+write) miss cycles
system.cpu.icache.demand_miss_latency::total   1246978000                       # number of demand (read+write) miss cycles
system.cpu.icache.overall_miss_latency::.cpu.inst   1246978000                       # number of overall miss cycles
system.cpu.icache.overall_miss_latency::total   1246978000                       # number of overall miss cycles
system.cpu.icache.demand_accesses::.cpu.inst    413254824                       # number of demand (read+write) accesses
system.cpu.icache.demand_accesses::total    413254824                       # number of demand (read+write) accesses
system.cpu.icache.overall_accesses::.cpu.inst    413254824                       # number of overall (read+write) accesses
system.cpu.icache.overall_accesses::total    413254824                       # number of overall (read+write) accesses
system.cpu.icache.demand_miss_rate::.cpu.inst     0.000045                       # miss rate for demand accesses
system.cpu.icache.demand_miss_rate::total     0.000045                       # miss rate for demand accesses
system.cpu.icache.overall_miss_rate::.cpu.inst     0.000045                       # miss rate for overall accesses
system.cpu.icache.overall_miss_rate::total     0.000045                       # miss rate for overall accesses
system.cpu.icache.demand_avg_miss_latency::.cpu.inst 66555.187874                       # average overall miss latency
system.cpu.icache.demand_avg_miss_latency::total 66555.187874                       # average overall miss latency
system.cpu.icache.overall_avg_miss_latency::.cpu.inst 66555.187874                       # average overall miss latency
system.cpu.icache.overall_avg_miss_latency::total 66555.187874                       # average overall miss latency
system.cpu.icache.blocked_cycles::no_mshrs            0                       # number of cycles access was blocked
system.cpu.icache.blocked_cycles::no_targets            0                       # number of cycles access was blocked
system.cpu.icache.blocked::no_mshrs                 0                       # number of cycles access was blocked
system.cpu.icache.blocked::no_targets               0                       # number of cycles access was blocked
system.cpu.icache.avg_blocked_cycles::no_mshrs          nan                       # average number of cycles each access was blocked
system.cpu.icache.avg_blocked_cycles::no_targets          nan                       # average number of cycles each access was blocked
system.cpu.icache.demand_mshr_misses::.cpu.inst        18736                       # number of demand (read+write) MSHR misses
system.cpu.icache.demand_mshr_misses::total        18736                       # number of demand (read+write) MSHR misses
system.cpu.icache.overall_mshr_misses::.cpu.inst        18736                       # number of overall MSHR misses
system.cpu.icache.overall_mshr_misses::total        18736                       # number of overall MSHR misses
system.cpu.icache.demand_mshr_miss_latency::.cpu.inst   1209506000                       # number of demand (read+write) MSHR miss cycles
system.cpu.icache.demand_mshr_miss_latency::total   1209506000                       # number of demand (read+write) MSHR miss cycles
system.cpu.icache.overall_mshr_miss_latency::.cpu.inst   1209506000                       # number of overall MSHR miss cycles
system.cpu.icache.overall_mshr_miss_latency::total   1209506000                       # number of overall MSHR miss cycles
system.cpu.icache.demand_mshr_miss_rate::.cpu.inst     0.000045                       # mshr miss rate for demand accesses
system.cpu.icache.demand_mshr_miss_rate::total     0.000045                       # mshr miss rate for demand accesses
system.cpu.icache.overall_mshr_miss_rate::.cpu.inst     0.000045                       # mshr miss rate for overall accesses
system.cpu.icache.overall_mshr_miss_rate::total     0.000045                       # mshr miss rate for overall accesses
system.cpu.icache.demand_avg_mshr_miss_latency::.cpu.inst 64555.187874                       # average overall mshr miss latency
system.cpu.icache.demand_avg_mshr_miss_latency::total 64555.187874                       # average overall mshr miss latency
system.cpu.icache.overall_avg_mshr_miss_latency::.cpu.inst 64555.187874                       # average overall mshr miss latency
system.cpu.icache.overall_avg_mshr_miss_latency::total 64555.187874                       # average overall mshr miss latency
system.cpu.icache.replacements                  18480                       # number of replacements
system.cpu.icache.ReadReq_hits::.cpu.inst    413236088                       # number of ReadReq hits
system.cpu.icache.ReadReq_hits::total       413236088                       # number of ReadReq hits
system.cpu.icache.ReadReq_misses::.cpu.inst        18736                       # number of ReadReq misses
system.cpu.icache.ReadReq_misses::total         18736                       # number of ReadReq misses
system.cpu.icache.ReadReq_miss_latency::.cpu.inst   1246978000                       # number of ReadReq miss cycles
system.cpu.icache.ReadReq_miss_latency::total   1246978000                       # number of ReadReq miss cycles
system.cpu.icache.ReadReq_accesses::.cpu.inst    413254824                       # number of ReadReq accesses(hits+misses)
system.cpu.icache.ReadReq_accesses::total    413254824                       # number of ReadReq accesses(hits+misses)
system.cpu.icache.ReadReq_miss_rate::.cpu.inst     0.000045                       # miss rate for ReadReq accesses
system.cpu.icache.ReadReq_miss_rate::total     0.000045                       # miss rate for ReadReq accesses
system.cpu.icache.ReadReq_avg_miss_latency::.cpu.inst 66555.187874                       # average ReadReq miss latency
system.cpu.icache.ReadReq_avg_miss_latency::total 66555.187874                       # average ReadReq miss latency
system.cpu.icache.ReadReq_mshr_misses::.cpu.inst        18736                       # number of ReadReq MSHR misses
system.cpu.icache.ReadReq_mshr_misses::total        18736                       # number of ReadReq MSHR misses
system.cpu.icache.ReadReq_mshr_miss_latency::.cpu.inst   1209506000                       # number of ReadReq MSHR miss cycles
system.cpu.icache.ReadReq_mshr_miss_latency::total   1209506000                       # number of ReadReq MSHR miss cycles
system.cpu.icache.ReadReq_mshr_miss_rate::.cpu.inst     0.000045                       # mshr miss rate for ReadReq accesses
system.cpu.icache.ReadReq_mshr_miss_rate::total     0.000045                       # mshr miss rate for ReadReq accesses
system.cpu.icache.ReadReq_avg_mshr_miss_latency::.cpu.inst 64555.187874                       # average ReadReq mshr miss latency
system.cpu.icache.ReadReq_avg_mshr_miss_latency::total 64555.187874                       # average ReadReq mshr miss latency
system.cpu.icache.power_state.pwrStateResidencyTicks::UNDEFINED 1712533080000                       # Cumulative time (in ticks) in various power states
system.cpu.icache.tags.tagsinuse           255.992334                       # Cycle average of tags in use
system.cpu.icache.tags.total_refs           413254824                       # Total number of references to valid blocks.
system.cpu.icache.tags.sampled_refs             18736                       # Sample count of references to valid blocks.
system.cpu.icache.tags.avg_refs          22056.726302                       # Average number of references to valid blocks.
system.cpu.icache.tags.warmup_cycle            107000                       # Cycle when the warmup percentage was hit.
system.cpu.icache.tags.occ_blocks::.cpu.inst   255.992334                       # Average occupied blocks per requestor
system.cpu.icache.tags.occ_percent::.cpu.inst     0.999970                       # Average percentage of cache occupancy
system.cpu.icache.tags.occ_percent::total     0.999970                       # Average percentage of cache occupancy
system.cpu.icache.tags.occ_task_id_blocks::1024          256                       # Occupied blocks per task id
system.cpu.icache.tags.age_task_id_blocks_1024::0           35                       # Occupied blocks per task id
system.cpu.icache.tags.age_task_id_blocks_1024::1          116                       # Occupied blocks per task id
system.cpu.icache.tags.age_task_id_blocks_1024::2           98                       # Occupied blocks per task id
system.cpu.icache.tags.age_task_id_blocks_1024::4            7                       # Occupied blocks per task id
system.cpu.icache.tags.occ_task_id_percent::1024            1                       # Percentage of cache occupancy per task id
system.cpu.icache.tags.tag_accesses         826528384                       # Number of tag accesses
system.cpu.icache.tags.data_accesses        826528384                       # Number of data accesses
system.cpu.icache.tags.power_state.pwrStateResidencyTicks::UNDEFINED 1712533080000                       # Cumulative time (in ticks) in various power states
system.cpu.interrupts.clk_domain.clock          16000                       # Clock period in ticks
system.cpu.itb.rdAccesses                           0                       # TLB accesses on read requests
system.cpu.itb.wrAccesses                   413254824                       # TLB accesses on write requests
system.cpu.itb.rdMisses                             0                       # TLB misses on read requests
system.cpu.itb.wrMisses                           110                       # TLB misses on write requests
system.cpu.itb.walker.power_state.pwrStateResidencyTicks::UNDEFINED 1712533080000                       # Cumulative time (in ticks) in various power states
system.cpu.power_state.pwrStateResidencyTicks::ON 1712533080000                       # Cumulative time (in ticks) in various power states
system.cpu.thread_0.numInsts                        0                       # Number of Instructions committed
system.cpu.thread_0.numOps                          0                       # Number of Ops committed
system.cpu.thread_0.numMemRefs                      0                       # Number of Memory References
system.l2bus.trans_dist::ReadResp             6509512                       # Transaction distribution
system.l2bus.trans_dist::WritebackDirty        711469                       # Transaction distribution
system.l2bus.trans_dist::CleanEvict          12599169                       # Transaction distribution
system.l2bus.trans_dist::ReadExReq             117971                       # Transaction distribution
system.l2bus.trans_dist::ReadExResp            117971                       # Transaction distribution
system.l2bus.trans_dist::ReadSharedReq        6509512                       # Transaction distribution
system.l2bus.pkt_count_system.cpu.icache.mem_side_port::system.l2cache.cpu_side_port        55952                       # Packet count per connected requestor and responder (bytes)
system.l2bus.pkt_count_system.cpu.dcache.mem_side_port::system.l2cache.cpu_side_port     19825217                       # Packet count per connected requestor and responder (bytes)
system.l2bus.pkt_count::total                19881169                       # Packet count per connected requestor and responder (bytes)
system.l2bus.pkt_size_system.cpu.icache.mem_side_port::system.l2cache.cpu_side_port      1199104                       # Cumulative packet size per connected requestor and responder (bytes)
system.l2bus.pkt_size_system.cpu.dcache.mem_side_port::system.l2cache.cpu_side_port    446797120                       # Cumulative packet size per connected requestor and responder (bytes)
system.l2bus.pkt_size::total                447996224                       # Cumulative packet size per connected requestor and responder (bytes)
system.l2bus.snoops                           6684435                       # Total snoops (count)
system.l2bus.snoopTraffic                    21696704                       # Total snoop traffic (bytes)
system.l2bus.snoop_fanout::samples           13311918                       # Request fanout histogram
system.l2bus.snoop_fanout::mean              0.102793                       # Request fanout histogram
system.l2bus.snoop_fanout::stdev             0.303689                       # Request fanout histogram
system.l2bus.snoop_fanout::underflows               0      0.00%      0.00% # Request fanout histogram
system.l2bus.snoop_fanout::0                 11943544     89.72%     89.72% # Request fanout histogram
system.l2bus.snoop_fanout::1                  1368374     10.28%    100.00% # Request fanout histogram
system.l2bus.snoop_fanout::2                        0      0.00%    100.00% # Request fanout histogram
system.l2bus.snoop_fanout::overflows                0      0.00%    100.00% # Request fanout histogram
system.l2bus.snoop_fanout::min_value                0                       # Request fanout histogram
system.l2bus.snoop_fanout::max_value                1                       # Request fanout histogram
system.l2bus.snoop_fanout::total             13311918                       # Request fanout histogram
system.l2bus.power_state.pwrStateResidencyTicks::UNDEFINED 1712533080000                       # Cumulative time (in ticks) in various power states
system.l2bus.reqLayer0.occupancy          13998602000                       # Layer occupancy (ticks)
system.l2bus.reqLayer0.utilization                0.8                       # Layer utilization (%)
system.l2bus.respLayer0.occupancy            56208000                       # Layer occupancy (ticks)
system.l2bus.respLayer0.utilization               0.0                       # Layer utilization (%)
system.l2bus.respLayer1.occupancy         19826241000                       # Layer occupancy (ticks)
system.l2bus.respLayer1.utilization               1.2                       # Layer utilization (%)
system.l2cache.demand_hits::.cpu.inst            8942                       # number of demand (read+write) hits
system.l2cache.demand_hits::.cpu.data           49359                       # number of demand (read+write) hits
system.l2cache.demand_hits::total               58301                       # number of demand (read+write) hits
system.l2cache.overall_hits::.cpu.inst           8942                       # number of overall hits
system.l2cache.overall_hits::.cpu.data          49359                       # number of overall hits
system.l2cache.overall_hits::total              58301                       # number of overall hits
system.l2cache.demand_misses::.cpu.inst          9794                       # number of demand (read+write) misses
system.l2cache.demand_misses::.cpu.data       6559388                       # number of demand (read+write) misses
system.l2cache.demand_misses::total           6569182                       # number of demand (read+write) misses
system.l2cache.overall_misses::.cpu.inst         9794                       # number of overall misses
system.l2cache.overall_misses::.cpu.data      6559388                       # number of overall misses
system.l2cache.overall_misses::total          6569182                       # number of overall misses
system.l2cache.demand_miss_latency::.cpu.inst    965489000                       # number of demand (read+write) miss cycles
system.l2cache.demand_miss_latency::.cpu.data 630461215000                       # number of demand (read+write) miss cycles
system.l2cache.demand_miss_latency::total 631426704000                       # number of demand (read+write) miss cycles
system.l2cache.overall_miss_latency::.cpu.inst    965489000                       # number of overall miss cycles
system.l2cache.overall_miss_latency::.cpu.data 630461215000                       # number of overall miss cycles
system.l2cache.overall_miss_latency::total 631426704000                       # number of overall miss cycles
system.l2cache.demand_accesses::.cpu.inst        18736                       # number of demand (read+write) accesses
system.l2cache.demand_accesses::.cpu.data      6608747                       # number of demand (read+write) accesses
system.l2cache.demand_accesses::total         6627483                       # number of demand (read+write) accesses
system.l2cache.overall_accesses::.cpu.inst        18736                       # number of overall (read+write) accesses
system.l2cache.overall_accesses::.cpu.data      6608747                       # number of overall (read+write) accesses
system.l2cache.overall_accesses::total        6627483                       # number of overall (read+write) accesses
system.l2cache.demand_miss_rate::.cpu.inst     0.522737                       # miss rate for demand accesses
system.l2cache.demand_miss_rate::.cpu.data     0.992531                       # miss rate for demand accesses
system.l2cache.demand_miss_rate::total       0.991203                       # miss rate for demand accesses
system.l2cache.overall_miss_rate::.cpu.inst     0.522737                       # miss rate for overall accesses
system.l2cache.overall_miss_rate::.cpu.data     0.992531                       # miss rate for overall accesses
system.l2cache.overall_miss_rate::total      0.991203                       # miss rate for overall accesses
system.l2cache.demand_avg_miss_latency::.cpu.inst 98579.640596                       # average overall miss latency
system.l2cache.demand_avg_miss_latency::.cpu.data 96115.859437                       # average overall miss latency
system.l2cache.demand_avg_miss_latency::total 96119.532691                       # average overall miss latency
system.l2cache.overall_avg_miss_latency::.cpu.inst 98579.640596                       # average overall miss latency
system.l2cache.overall_avg_miss_latency::.cpu.data 96115.859437                       # average overall miss latency
system.l2cache.overall_avg_miss_latency::total 96119.532691                       # average overall miss latency
system.l2cache.blocked_cycles::no_mshrs             0                       # number of cycles access was blocked
system.l2cache.blocked_cycles::no_targets            0                       # number of cycles access was blocked
system.l2cache.blocked::no_mshrs                    0                       # number of cycles access was blocked
system.l2cache.blocked::no_targets                  0                       # number of cycles access was blocked
system.l2cache.avg_blocked_cycles::no_mshrs          nan                       # average number of cycles each access was blocked
system.l2cache.avg_blocked_cycles::no_targets          nan                       # average number of cycles each access was blocked
system.l2cache.writebacks::.writebacks         339011                       # number of writebacks
system.l2cache.writebacks::total               339011                       # number of writebacks
system.l2cache.demand_mshr_misses::.cpu.inst         9794                       # number of demand (read+write) MSHR misses
system.l2cache.demand_mshr_misses::.cpu.data      6559388                       # number of demand (read+write) MSHR misses
system.l2cache.demand_mshr_misses::total      6569182                       # number of demand (read+write) MSHR misses
system.l2cache.overall_mshr_misses::.cpu.inst         9794                       # number of overall MSHR misses
system.l2cache.overall_mshr_misses::.cpu.data      6559388                       # number of overall MSHR misses
system.l2cache.overall_mshr_misses::total      6569182                       # number of overall MSHR misses
system.l2cache.demand_mshr_miss_latency::.cpu.inst    769609000                       # number of demand (read+write) MSHR miss cycles
system.l2cache.demand_mshr_miss_latency::.cpu.data 499273455000                       # number of demand (read+write) MSHR miss cycles
system.l2cache.demand_mshr_miss_latency::total 500043064000                       # number of demand (read+write) MSHR miss cycles
system.l2cache.overall_mshr_miss_latency::.cpu.inst    769609000                       # number of overall MSHR miss cycles
system.l2cache.overall_mshr_miss_latency::.cpu.data 499273455000                       # number of overall MSHR miss cycles
system.l2cache.overall_mshr_miss_latency::total 500043064000                       # number of overall MSHR miss cycles
system.l2cache.demand_mshr_miss_rate::.cpu.inst     0.522737                       # mshr miss rate for demand accesses
system.l2cache.demand_mshr_miss_rate::.cpu.data     0.992531                       # mshr miss rate for demand accesses
system.l2cache.demand_mshr_miss_rate::total     0.991203                       # mshr miss rate for demand accesses
system.l2cache.overall_mshr_miss_rate::.cpu.inst     0.522737                       # mshr miss rate for overall accesses
system.l2cache.overall_mshr_miss_rate::.cpu.data     0.992531                       # mshr miss rate for overall accesses
system.l2cache.overall_mshr_miss_rate::total     0.991203                       # mshr miss rate for overall accesses
system.l2cache.demand_avg_mshr_miss_latency::.cpu.inst 78579.640596                       # average overall mshr miss latency
system.l2cache.demand_avg_mshr_miss_latency::.cpu.data 76115.859437                       # average overall mshr miss latency
system.l2cache.demand_avg_mshr_miss_latency::total 76119.532691                       # average overall mshr miss latency
system.l2cache.overall_avg_mshr_miss_latency::.cpu.inst 78579.640596                       # average overall mshr miss latency
system.l2cache.overall_avg_mshr_miss_latency::.cpu.data 76115.859437                       # average overall mshr miss latency
system.l2cache.overall_avg_mshr_miss_latency::total 76119.532691                       # average overall mshr miss latency
system.l2cache.replacements                   6619161                       # number of replacements
system.l2cache.WritebackDirty_hits::.writebacks       371312                       # number of WritebackDirty hits
system.l2cache.WritebackDirty_hits::total       371312                       # number of WritebackDirty hits
system.l2cache.WritebackDirty_misses::.writebacks         1146                       # number of WritebackDirty misses
system.l2cache.WritebackDirty_misses::total         1146                       # number of WritebackDirty misses
system.l2cache.WritebackDirty_accesses::.writebacks       372458                       # number of WritebackDirty accesses(hits+misses)
system.l2cache.WritebackDirty_accesses::total       372458                       # number of WritebackDirty accesses(hits+misses)
system.l2cache.WritebackDirty_miss_rate::.writebacks     0.003077                       # miss rate for WritebackDirty accesses
system.l2cache.WritebackDirty_miss_rate::total     0.003077                       # miss rate for WritebackDirty accesses
system.l2cache.WritebackDirty_mshr_misses::.writebacks         1146                       # number of WritebackDirty MSHR misses
system.l2cache.WritebackDirty_mshr_misses::total         1146                       # number of WritebackDirty MSHR misses
system.l2cache.WritebackDirty_mshr_miss_rate::.writebacks     0.003077                       # mshr miss rate for WritebackDirty accesses
system.l2cache.WritebackDirty_mshr_miss_rate::total     0.003077                       # mshr miss rate for WritebackDirty accesses
system.l2cache.CleanEvict_mshr_misses::.writebacks      1249599                       # number of CleanEvict MSHR misses
system.l2cache.CleanEvict_mshr_misses::total      1249599                       # number of CleanEvict MSHR misses
system.l2cache.CleanEvict_mshr_miss_rate::.writebacks          inf                       # mshr miss rate for CleanEvict accesses
system.l2cache.CleanEvict_mshr_miss_rate::total          inf                       # mshr miss rate for CleanEvict accesses
system.l2cache.ReadExReq_hits::.cpu.data        11167                       # number of ReadExReq hits
system.l2cache.ReadExReq_hits::total            11167                       # number of ReadExReq hits
system.l2cache.ReadExReq_misses::.cpu.data       106804                       # number of ReadExReq misses
system.l2cache.ReadExReq_misses::total         106804                       # number of ReadExReq misses
system.l2cache.ReadExReq_miss_latency::.cpu.data  11243066000                       # number of ReadExReq miss cycles
system.l2cache.ReadExReq_miss_latency::total  11243066000                       # number of ReadExReq miss cycles
system.l2cache.ReadExReq_accesses::.cpu.data       117971                       # number of ReadExReq accesses(hits+misses)
system.l2cache.ReadExReq_accesses::total       117971                       # number of ReadExReq accesses(hits+misses)
system.l2cache.ReadExReq_miss_rate::.cpu.data     0.905341                       # miss rate for ReadExReq accesses
system.l2cache.ReadExReq_miss_rate::total     0.905341                       # miss rate for ReadExReq accesses
system.l2cache.ReadExReq_avg_miss_latency::.cpu.data 105268.210928                       # average ReadExReq miss latency
system.l2cache.ReadExReq_avg_miss_latency::total 105268.210928                       # average ReadExReq miss latency
system.l2cache.ReadExReq_mshr_misses::.cpu.data       106804                       # number of ReadExReq MSHR misses
system.l2cache.ReadExReq_mshr_misses::total       106804                       # number of ReadExReq MSHR misses
system.l2cache.ReadExReq_mshr_miss_latency::.cpu.data   9106986000                       # number of ReadExReq MSHR miss cycles
system.l2cache.ReadExReq_mshr_miss_latency::total   9106986000                       # number of ReadExReq MSHR miss cycles
system.l2cache.ReadExReq_mshr_miss_rate::.cpu.data     0.905341                       # mshr miss rate for ReadExReq accesses
system.l2cache.ReadExReq_mshr_miss_rate::total     0.905341                       # mshr miss rate for ReadExReq accesses
system.l2cache.ReadExReq_avg_mshr_miss_latency::.cpu.data 85268.210928                       # average ReadExReq mshr miss latency
system.l2cache.ReadExReq_avg_mshr_miss_latency::total 85268.210928                       # average ReadExReq mshr miss latency
system.l2cache.ReadSharedReq_hits::.cpu.inst         8942                       # number of ReadSharedReq hits
system.l2cache.ReadSharedReq_hits::.cpu.data        38192                       # number of ReadSharedReq hits
system.l2cache.ReadSharedReq_hits::total        47134                       # number of ReadSharedReq hits
system.l2cache.ReadSharedReq_misses::.cpu.inst         9794                       # number of ReadSharedReq misses
system.l2cache.ReadSharedReq_misses::.cpu.data      6452584                       # number of ReadSharedReq misses
system.l2cache.ReadSharedReq_misses::total      6462378                       # number of ReadSharedReq misses
system.l2cache.ReadSharedReq_miss_latency::.cpu.inst    965489000                       # number of ReadSharedReq miss cycles
system.l2cache.ReadSharedReq_miss_latency::.cpu.data 619218149000                       # number of ReadSharedReq miss cycles
system.l2cache.ReadSharedReq_miss_latency::total 620183638000                       # number of ReadSharedReq miss cycles
system.l2cache.ReadSharedReq_accesses::.cpu.inst        18736                       # number of ReadSharedReq accesses(hits+misses)
system.l2cache.ReadSharedReq_accesses::.cpu.data      6490776                       # number of ReadSharedReq accesses(hits+misses)
system.l2cache.ReadSharedReq_accesses::total      6509512                       # number of ReadSharedReq accesses(hits+misses)
system.l2cache.ReadSharedReq_miss_rate::.cpu.inst     0.522737                       # miss rate for ReadSharedReq accesses
system.l2cache.ReadSharedReq_miss_rate::.cpu.data     0.994116                       # miss rate for ReadSharedReq accesses
system.l2cache.ReadSharedReq_miss_rate::total     0.992759                       # miss rate for ReadSharedReq accesses
system.l2cache.ReadSharedReq_avg_miss_latency::.cpu.inst 98579.640596                       # average ReadSharedReq miss latency
system.l2cache.ReadSharedReq_avg_miss_latency::.cpu.data 95964.368538                       # average ReadSharedReq miss latency
system.l2cache.ReadSharedReq_avg_miss_latency::total 95968.332091                       # average ReadSharedReq miss latency
system.l2cache.ReadSharedReq_mshr_misses::.cpu.inst         9794                       # number of ReadSharedReq MSHR misses
system.l2cache.ReadSharedReq_mshr_misses::.cpu.data      6452584                       # number of ReadSharedReq MSHR misses
system.l2cache.ReadSharedReq_mshr_misses::total      6462378                       # number of ReadSharedReq MSHR misses
system.l2cache.ReadSharedReq_mshr_miss_latency::.cpu.inst    769609000                       # number of ReadSharedReq MSHR miss cycles
system.l2cache.ReadSharedReq_mshr_miss_latency::.cpu.data 490166469000                       # number of ReadSharedReq MSHR miss cycles
system.l2cache.ReadSharedReq_mshr_miss_latency::total 490936078000                       # number of ReadSharedReq MSHR miss cycles
system.l2cache.ReadSharedReq_mshr_miss_rate::.cpu.inst     0.522737                       # mshr miss rate for ReadSharedReq accesses
system.l2cache.ReadSharedReq_mshr_miss_rate::.cpu.data     0.994116                       # mshr miss rate for ReadSharedReq accesses
system.l2cache.ReadSharedReq_mshr_miss_rate::total     0.992759                       # mshr miss rate for ReadSharedReq accesses
system.l2cache.ReadSharedReq_avg_mshr_miss_latency::.cpu.inst 78579.640596                       # average ReadSharedReq mshr miss latency
system.l2cache.ReadSharedReq_avg_mshr_miss_latency::.cpu.data 75964.368538                       # average ReadSharedReq mshr miss latency
system.l2cache.ReadSharedReq_avg_mshr_miss_latency::total 75968.332091                       # average ReadSharedReq mshr miss latency
system.l2cache.power_state.pwrStateResidencyTicks::UNDEFINED 1712533080000                       # Cumulative time (in ticks) in various power states
system.l2cache.replacement_policy.totalBypasses        66420                       # Total number of cache bypasses
system.l2cache.replacement_policy.effectiveBypasses        11091                       # Bypasses that correctly skipped non-reused blocks
system.l2cache.replacement_policy.ineffectiveBypasses          192                       # Bypasses that incorrectly skipped requested blocks
system.l2cache.replacement_policy.virtualEffectiveBypasses        62902                       # Virtual bypasses correctly predicting non-reused blocks
system.l2cache.replacement_policy.virtualIneffectiveBypasses       168680                       # Virtual bypasses incorrectly predicting requested blocks
system.l2cache.tags.tagsinuse             2047.515517                       # Cycle average of tags in use
system.l2cache.tags.total_refs               11937667                       # Total number of references to valid blocks.
system.l2cache.tags.sampled_refs              6621209                       # Sample count of references to valid blocks.
system.l2cache.tags.avg_refs                 1.802944                       # Average number of references to valid blocks.
system.l2cache.tags.warmup_cycle             15411000                       # Cycle when the warmup percentage was hit.
system.l2cache.tags.occ_blocks::.writebacks    51.613525                       # Average occupied blocks per requestor
system.l2cache.tags.occ_blocks::.cpu.inst     2.755588                       # Average occupied blocks per requestor
system.l2cache.tags.occ_blocks::.cpu.data  1993.146404                       # Average occupied blocks per requestor
system.l2cache.tags.occ_percent::.writebacks     0.025202                       # Average percentage of cache occupancy
system.l2cache.tags.occ_percent::.cpu.inst     0.001346                       # Average percentage of cache occupancy
system.l2cache.tags.occ_percent::.cpu.data     0.973216                       # Average percentage of cache occupancy
system.l2cache.tags.occ_percent::total       0.999763                       # Average percentage of cache occupancy
system.l2cache.tags.occ_task_id_blocks::1024         2048                       # Occupied blocks per task id
system.l2cache.tags.age_task_id_blocks_1024::0           72                       # Occupied blocks per task id
system.l2cache.tags.age_task_id_blocks_1024::1          191                       # Occupied blocks per task id
system.l2cache.tags.age_task_id_blocks_1024::2         1638                       # Occupied blocks per task id
system.l2cache.tags.age_task_id_blocks_1024::3          147                       # Occupied blocks per task id
system.l2cache.tags.occ_task_id_percent::1024            1                       # Percentage of cache occupancy per task id
system.l2cache.tags.tag_accesses            112650697                       # Number of tag accesses
system.l2cache.tags.data_accesses           112650697                       # Number of data accesses
system.l2cache.tags.power_state.pwrStateResidencyTicks::UNDEFINED 1712533080000                       # Cumulative time (in ticks) in various power states
system.mem_ctrl.avgPriority_.writebacks::samples    340157.00                       # Average QoS priority value for accepted requests
system.mem_ctrl.avgPriority_.cpu.inst::samples      9794.00                       # Average QoS priority value for accepted requests
system.mem_ctrl.avgPriority_.cpu.data::samples   6549244.00                       # Average QoS priority value for accepted requests
system.mem_ctrl.priorityMinLatency       0.000000018750                       # per QoS priority minimum request to response latency (s)
system.mem_ctrl.priorityMaxLatency       0.003696308500                       # per QoS priority maximum request to response latency (s)
system.mem_ctrl.numReadWriteTurnArounds         19143                       # Number of turnarounds from READ to WRITE
system.mem_ctrl.numWriteReadTurnArounds         19143                       # Number of turnarounds from WRITE to READ
system.mem_ctrl.numStayReadState             13893285                       # Number of times bus staying in READ state
system.mem_ctrl.numStayWriteState              321310                       # Number of times bus staying in WRITE state
system.mem_ctrl.readReqs                      6569182                       # Number of read requests accepted
system.mem_ctrl.writeReqs                      340157                       # Number of write requests accepted
system.mem_ctrl.readBursts                    6569182                       # Number of controller read bursts, including those serviced by the write queue
system.mem_ctrl.writeBursts                    340157                       # Number of controller write bursts, including those merged in the write queue
system.mem_ctrl.servicedByWrQ                   10144                       # Number of controller read bursts serviced by the write queue
system.mem_ctrl.mergedWrBursts                      0                       # Number of controller write bursts merged with an existing one
system.mem_ctrl.neitherReadNorWriteReqs             0                       # Number of requests that are neither read nor write
system.mem_ctrl.avgRdQLen                        1.00                       # Average read queue length when enqueuing
system.mem_ctrl.avgWrQLen                       24.57                       # Average write queue length when enqueuing
system.mem_ctrl.numRdRetry                          0                       # Number of times read queue was full causing retry
system.mem_ctrl.numWrRetry                          0                       # Number of times write queue was full causing retry
system.mem_ctrl.readPktSize::0                      0                       # Read request sizes (log2)
system.mem_ctrl.readPktSize::1                      0                       # Read request sizes (log2)
system.mem_ctrl.readPktSize::2                      0                       # Read request sizes (log2)
system.mem_ctrl.readPktSize::3                      0                       # Read request sizes (log2)
system.mem_ctrl.readPktSize::4                      0                       # Read request sizes (log2)
system.mem_ctrl.readPktSize::5                      0                       # Read request sizes (log2)
system.mem_ctrl.readPktSize::6                6569182                       # Read request sizes (log2)
system.mem_ctrl.writePktSize::0                     0                       # Write request sizes (log2)
system.mem_ctrl.writePktSize::1                     0                       # Write request sizes (log2)
system.mem_ctrl.writePktSize::2                     0                       # Write request sizes (log2)
system.mem_ctrl.writePktSize::3                     0                       # Write request sizes (log2)
system.mem_ctrl.writePktSize::4                     0                       # Write request sizes (log2)
system.mem_ctrl.writePktSize::5                     0                       # Write request sizes (log2)
system.mem_ctrl.writePktSize::6                340157                       # Write request sizes (log2)
system.mem_ctrl.rdQLenPdf::0                  6558956                       # What read queue length does an incoming req see
system.mem_ctrl.rdQLenPdf::1                       82                       # What read queue length does an incoming req see
system.mem_ctrl.rdQLenPdf::2                        0                       # What read queue length does an incoming req see
system.mem_ctrl.rdQLenPdf::3                        0                       # What read queue length does an incoming req see
system.mem_ctrl.rdQLenPdf::4                        0                       # What read queue length does an incoming req see
system.mem_ctrl.rdQLenPdf::5                        0                       # What read queue length does an incoming req see
system.mem_ctrl.rdQLenPdf::6                        0                       # What read queue length does an incoming req see
system.mem_ctrl.rdQLenPdf::7                        0                       # What read queue length does an incoming req see
system.mem_ctrl.rdQLenPdf::8                        0                       # What read queue length does an incoming req see
system.mem_ctrl.rdQLenPdf::9                        0                       # What read queue length does an incoming req see
system.mem_ctrl.rdQLenPdf::10                       0                       # What read queue length does an incoming req see
system.mem_ctrl.rdQLenPdf::11                       0                       # What read queue length does an incoming req see
system.mem_ctrl.rdQLenPdf::12                       0                       # What read queue length does an incoming req see
system.mem_ctrl.rdQLenPdf::13                       0                       # What read queue length does an incoming req see
system.mem_ctrl.rdQLenPdf::14                       0                       # What read queue length does an incoming req see
system.mem_ctrl.rdQLenPdf::15                       0                       # What read queue length does an incoming req see
system.mem_ctrl.rdQLenPdf::16                       0                       # What read queue length does an incoming req see
system.mem_ctrl.rdQLenPdf::17                       0                       # What read queue length does an incoming req see
system.mem_ctrl.rdQLenPdf::18                       0                       # What read queue length does an incoming req see
system.mem_ctrl.rdQLenPdf::19                       0                       # What read queue length does an incoming req see
system.mem_ctrl.rdQLenPdf::20                       0                       # What read queue length does an incoming req see
system.mem_ctrl.rdQLenPdf::21                       0                       # What read queue length does an incoming req see
system.mem_ctrl.rdQLenPdf::22                       0                       # What read queue length does an incoming req see
system.mem_ctrl.rdQLenPdf::23                       0                       # What read queue length does an incoming req see
system.mem_ctrl.rdQLenPdf::24                       0                       # What read queue length does an incoming req see
system.mem_ctrl.rdQLenPdf::25                       0                       # What read queue length does an incoming req see
system.mem_ctrl.rdQLenPdf::26                       0                       # What read queue length does an incoming req see
system.mem_ctrl.rdQLenPdf::27                       0                       # What read queue length does an incoming req see
system.mem_ctrl.rdQLenPdf::28                       0                       # What read queue length does an incoming req see
system.mem_ctrl.rdQLenPdf::29                       0                       # What read queue length does an incoming req see
system.mem_ctrl.rdQLenPdf::30                       0                       # What read queue length does an incoming req see
system.mem_ctrl.rdQLenPdf::31                       0                       # What read queue length does an incoming req see
system.mem_ctrl.wrQLenPdf::0                        1                       # What write queue length does an incoming req see
system.mem_ctrl.wrQLenPdf::1                        1                       # What write queue length does an incoming req see
system.mem_ctrl.wrQLenPdf::2                        1                       # What write queue length does an incoming req see
system.mem_ctrl.wrQLenPdf::3                        1                       # What write queue length does an incoming req see
system.mem_ctrl.wrQLenPdf::4                        1                       # What write queue length does an incoming req see
system.mem_ctrl.wrQLenPdf::5                        1                       # What write queue length does an incoming req see
system.mem_ctrl.wrQLenPdf::6                        1                       # What write queue length does an incoming req see
system.mem_ctrl.wrQLenPdf::7                        1                       # What write queue length does an incoming req see
system.mem_ctrl.wrQLenPdf::8                        1                       # What write queue length does an incoming req see
system.mem_ctrl.wrQLenPdf::9                        1                       # What write queue length does an incoming req see
system.mem_ctrl.wrQLenPdf::10                       1                       # What write queue length does an incoming req see
system.mem_ctrl.wrQLenPdf::11                       1                       # What write queue length does an incoming req see
system.mem_ctrl.wrQLenPdf::12                       1                       # What write queue length does an incoming req see
system.mem_ctrl.wrQLenPdf::13                       1                       # What write queue length does an incoming req see
system.mem_ctrl.wrQLenPdf::14                       1                       # What write queue length does an incoming req see
system.mem_ctrl.wrQLenPdf::15                   16409                       # What write queue length does an incoming req see
system.mem_ctrl.wrQLenPdf::16                   16608                       # What write queue length does an incoming req see
system.mem_ctrl.wrQLenPdf::17                   18950                       # What write queue length does an incoming req see
system.mem_ctrl.wrQLenPdf::18                   19279                       # What write queue length does an incoming req see
system.mem_ctrl.wrQLenPdf::19                   19272                       # What write queue length does an incoming req see
system.mem_ctrl.wrQLenPdf::20                   19218                       # What write queue length does an incoming req see
system.mem_ctrl.wrQLenPdf::21                   19604                       # What write queue length does an incoming req see
system.mem_ctrl.wrQLenPdf::22                   19330                       # What write queue length does an incoming req see
system.mem_ctrl.wrQLenPdf::23                   19152                       # What write queue length does an incoming req see
system.mem_ctrl.wrQLenPdf::24                   19147                       # What write queue length does an incoming req see
system.mem_ctrl.wrQLenPdf::25                   19154                       # What write queue length does an incoming req see
system.mem_ctrl.wrQLenPdf::26                   19147                       # What write queue length does an incoming req see
system.mem_ctrl.wrQLenPdf::27                   19145                       # What write queue length does an incoming req see
system.mem_ctrl.wrQLenPdf::28                   19144                       # What write queue length does an incoming req see
system.mem_ctrl.wrQLenPdf::29                   19147                       # What write queue length does an incoming req see
system.mem_ctrl.wrQLenPdf::30                   19143                       # What write queue length does an incoming req see
system.mem_ctrl.wrQLenPdf::31                   19143                       # What write queue length does an incoming req see
system.mem_ctrl.wrQLenPdf::32                   19143                       # What write queue length does an incoming req see
system.mem_ctrl.wrQLenPdf::33                       7                       # What write queue length does an incoming req see
system.mem_ctrl.wrQLenPdf::34                       0                       # What write queue length does an incoming req see
system.mem_ctrl.wrQLenPdf::35                       0                       # What write queue length does an incoming req see
system.mem_ctrl.wrQLenPdf::36                       0                       # What write queue length does an incoming req see
system.mem_ctrl.wrQLenPdf::37                       0                       # What write queue length does an incoming req see
system.mem_ctrl.wrQLenPdf::38                       0                       # What write queue length does an incoming req see
system.mem_ctrl.wrQLenPdf::39                       0                       # What write queue length does an incoming req see
system.mem_ctrl.wrQLenPdf::40                       0                       # What write queue length does an incoming req see
system.mem_ctrl.wrQLenPdf::41                       0                       # What write queue length does an incoming req see
system.mem_ctrl.wrQLenPdf::42                       0                       # What write queue length does an incoming req see
system.mem_ctrl.wrQLenPdf::43                       0                       # What write queue length does an incoming req see
system.mem_ctrl.wrQLenPdf::44                       0                       # What write queue length does an incoming req see
system.mem_ctrl.wrQLenPdf::45                       0                       # What write queue length does an incoming req see
system.mem_ctrl.wrQLenPdf::46                       0                       # What write queue length does an incoming req see
system.mem_ctrl.wrQLenPdf::47                       0                       # What write queue length does an incoming req see
system.mem_ctrl.wrQLenPdf::48                       0                       # What write queue length does an incoming req see
system.mem_ctrl.wrQLenPdf::49                       0                       # What write queue length does an incoming req see
system.mem_ctrl.wrQLenPdf::50                       0                       # What write queue length does an incoming req see
system.mem_ctrl.wrQLenPdf::51                       0                       # What write queue length does an incoming req see
system.mem_ctrl.wrQLenPdf::52                       0                       # What write queue length does an incoming req see
system.mem_ctrl.wrQLenPdf::53                       0                       # What write queue length does an incoming req see
system.mem_ctrl.wrQLenPdf::54                       0                       # What write queue length does an incoming req see
system.mem_ctrl.wrQLenPdf::55                       0                       # What write queue length does an incoming req see
system.mem_ctrl.wrQLenPdf::56                       0                       # What write queue length does an incoming req see
system.mem_ctrl.wrQLenPdf::57                       0                       # What write queue length does an incoming req see
system.mem_ctrl.wrQLenPdf::58                       0                       # What write queue length does an incoming req see
system.mem_ctrl.wrQLenPdf::59                       0                       # What write queue length does an incoming req see
system.mem_ctrl.wrQLenPdf::60                       0                       # What write queue length does an incoming req see
system.mem_ctrl.wrQLenPdf::61                       0                       # What write queue length does an incoming req see
system.mem_ctrl.wrQLenPdf::62                       0                       # What write queue length does an incoming req see
system.mem_ctrl.wrQLenPdf::63                       0                       # What write queue length does an incoming req see
system.mem_ctrl.rdPerTurnAround::samples        19143                       # Reads before turning the bus around for writes
system.mem_ctrl.rdPerTurnAround::mean      342.630413                       # Reads before turning the bus around for writes
system.mem_ctrl.rdPerTurnAround::stdev     659.415461                       # Reads before turning the bus around for writes
system.mem_ctrl.rdPerTurnAround::0-127          14380     75.12%     75.12% # Reads before turning the bus around for writes
system.mem_ctrl.rdPerTurnAround::128-255          535      2.79%     77.91% # Reads before turning the bus around for writes
system.mem_ctrl.rdPerTurnAround::256-383          364      1.90%     79.82% # Reads before turning the bus around for writes
system.mem_ctrl.rdPerTurnAround::384-511          176      0.92%     80.73% # Reads before turning the bus around for writes
system.mem_ctrl.rdPerTurnAround::512-639           24      0.13%     80.86% # Reads before turning the bus around for writes
system.mem_ctrl.rdPerTurnAround::640-767           37      0.19%     81.05% # Reads before turning the bus around for writes
system.mem_ctrl.rdPerTurnAround::768-895          228      1.19%     82.24% # Reads before turning the bus around for writes
system.mem_ctrl.rdPerTurnAround::896-1023           88      0.46%     82.70% # Reads before turning the bus around for writes
system.mem_ctrl.rdPerTurnAround::1024-1151          145      0.76%     83.46% # Reads before turning the bus around for writes
system.mem_ctrl.rdPerTurnAround::1152-1279          416      2.17%     85.63% # Reads before turning the bus around for writes
system.mem_ctrl.rdPerTurnAround::1280-1407           61      0.32%     85.95% # Reads before turning the bus around for writes
system.mem_ctrl.rdPerTurnAround::1408-1535           54      0.28%     86.24% # Reads before turning the bus around for writes
system.mem_ctrl.rdPerTurnAround::1536-1663         2190     11.44%     97.68% # Reads before turning the bus around for writes
system.mem_ctrl.rdPerTurnAround::1664-1791            1      0.01%     97.68% # Reads before turning the bus around for writes
system.mem_ctrl.rdPerTurnAround::1792-1919           18      0.09%     97.77% # Reads before turning the bus around for writes
system.mem_ctrl.rdPerTurnAround::1920-2047           16      0.08%     97.86% # Reads before turning the bus around for writes
system.mem_ctrl.rdPerTurnAround::2048-2175           69      0.36%     98.22% # Reads before turning the bus around for writes
system.mem_ctrl.rdPerTurnAround::2176-2303            1      0.01%     98.22% # Reads before turning the bus around for writes
system.mem_ctrl.rdPerTurnAround::2304-2431            2      0.01%     98.23% # Reads before turning the bus around for writes
system.mem_ctrl.rdPerTurnAround::2432-2559          119      0.62%     98.86% # Reads before turning the bus around for writes
system.mem_ctrl.rdPerTurnAround::2560-2687            3      0.02%     98.87% # Reads before turning the bus around for writes
system.mem_ctrl.rdPerTurnAround::2688-2815            1      0.01%     98.88% # Reads before turning the bus around for writes
system.mem_ctrl.rdPerTurnAround::2816-2943            2      0.01%     98.89% # Reads before turning the bus around for writes
system.mem_ctrl.rdPerTurnAround::2944-3071            4      0.02%     98.91% # Reads before turning the bus around for writes
[...]
system.mem_ctrl.requestorReadRate::.cpu.data 244755339.850135922432                       # Per-requestor bytes read from memory rate (Bytes/sec)
system.mem_ctrl.requestorWriteRate::.writebacks 12711182.198010446504                       # Per-requestor bytes write to memory rate (Bytes/sec)
system.mem_ctrl.requestorReadAccesses::.cpu.inst         9794                       # Per-requestor read serviced memory accesses
system.mem_ctrl.requestorReadAccesses::.cpu.data      6559388                       # Per-requestor read serviced memory accesses
system.mem_ctrl.requestorWriteAccesses::.writebacks       340157                       # Per-requestor write serviced memory accesses
system.mem_ctrl.requestorReadTotalLat::.cpu.inst    266836000                       # Per-requestor read total memory access latency
system.mem_ctrl.requestorReadTotalLat::.cpu.data 162930076500                       # Per-requestor read total memory access latency
system.mem_ctrl.requestorWriteTotalLat::.writebacks 40399366218750                       # Per-requestor write total memory access latency
system.mem_ctrl.requestorReadAvgLat::.cpu.inst     27244.84                       # Per-requestor read average memory access latency
system.mem_ctrl.requestorReadAvgLat::.cpu.data     24839.22                       # Per-requestor read average memory access latency
system.mem_ctrl.requestorWriteAvgLat::.writebacks 118766823.02                       # Per-requestor write average memory access latency
system.mem_ctrl.dram.bytes_read::.cpu.inst       626816                       # Number of bytes read from this memory
system.mem_ctrl.dram.bytes_read::.cpu.data    419800832                       # Number of bytes read from this memory
system.mem_ctrl.dram.bytes_read::total      420427648                       # Number of bytes read from this memory
system.mem_ctrl.dram.bytes_inst_read::.cpu.inst       626816                       # Number of instructions bytes read from this memory
system.mem_ctrl.dram.bytes_inst_read::total       626816                       # Number of instructions bytes read from this memory
system.mem_ctrl.dram.bytes_written::.writebacks     21770048                       # Number of bytes written to this memory
system.mem_ctrl.dram.bytes_written::total     21770048                       # Number of bytes written to this memory
system.mem_ctrl.dram.num_reads::.cpu.inst         9794                       # Number of read requests responded to by this memory
system.mem_ctrl.dram.num_reads::.cpu.data      6559388                       # Number of read requests responded to by this memory
system.mem_ctrl.dram.num_reads::total         6569182                       # Number of read requests responded to by this memory
system.mem_ctrl.dram.num_writes::.writebacks       340157                       # Number of write requests responded to by this memory
system.mem_ctrl.dram.num_writes::total         340157                       # Number of write requests responded to by this memory
system.mem_ctrl.dram.bw_read::.cpu.inst        366017                       # Total read bandwidth from this memory (bytes/s)
system.mem_ctrl.dram.bw_read::.cpu.data     245134437                       # Total read bandwidth from this memory (bytes/s)
system.mem_ctrl.dram.bw_read::total         245500454                       # Total read bandwidth from this memory (bytes/s)
system.mem_ctrl.dram.bw_inst_read::.cpu.inst       366017                       # Instruction read bandwidth from this memory (bytes/s)
system.mem_ctrl.dram.bw_inst_read::total       366017                       # Instruction read bandwidth from this memory (bytes/s)
system.mem_ctrl.dram.bw_write::.writebacks     12712191                       # Write bandwidth from this memory (bytes/s)
system.mem_ctrl.dram.bw_write::total         12712191                       # Write bandwidth from this memory (bytes/s)
system.mem_ctrl.dram.bw_total::.writebacks     12712191                       # Total bandwidth to/from this memory (bytes/s)
system.mem_ctrl.dram.bw_total::.cpu.inst       366017                       # Total bandwidth to/from this memory (bytes/s)
system.mem_ctrl.dram.bw_total::.cpu.data    245134437                       # Total bandwidth to/from this memory (bytes/s)
system.mem_ctrl.dram.bw_total::total        258212645                       # Total bandwidth to/from this memory (bytes/s)
system.mem_ctrl.dram.readBursts               6559038                       # Number of DRAM read bursts
system.mem_ctrl.dram.writeBursts               340130                       # Number of DRAM write bursts
system.mem_ctrl.dram.perBankRdBursts::0        436961                       # Per bank write bursts
system.mem_ctrl.dram.perBankRdBursts::1        392783                       # Per bank write bursts
system.mem_ctrl.dram.perBankRdBursts::2        382759                       # Per bank write bursts
system.mem_ctrl.dram.perBankRdBursts::3        382823                       # Per bank write bursts
system.mem_ctrl.dram.perBankRdBursts::4        383855                       # Per bank write bursts
system.mem_ctrl.dram.perBankRdBursts::5        407557                       # Per bank write bursts
system.mem_ctrl.dram.perBankRdBursts::6        442717                       # Per bank write bursts
system.mem_ctrl.dram.perBankRdBursts::7        411161                       # Per bank write bursts
system.mem_ctrl.dram.perBankRdBursts::8        447302                       # Per bank write bursts
system.mem_ctrl.dram.perBankRdBursts::9        394607                       # Per bank write bursts
system.mem_ctrl.dram.perBankRdBursts::10       383993                       # Per bank write bursts
system.mem_ctrl.dram.perBankRdBursts::11       382520                       # Per bank write bursts
system.mem_ctrl.dram.perBankRdBursts::12       399641                       # Per bank write bursts
system.mem_ctrl.dram.perBankRdBursts::13       436026                       # Per bank write bursts
system.mem_ctrl.dram.perBankRdBursts::14       436588                       # Per bank write bursts
system.mem_ctrl.dram.perBankRdBursts::15       437745                       # Per bank write bursts
system.mem_ctrl.dram.perBankWrBursts::0          8328                       # Per bank write bursts
system.mem_ctrl.dram.perBankWrBursts::1          7650                       # Per bank write bursts
system.mem_ctrl.dram.perBankWrBursts::2          7602                       # Per bank write bursts
system.mem_ctrl.dram.perBankWrBursts::3          7670                       # Per bank write bursts
system.mem_ctrl.dram.perBankWrBursts::4          8686                       # Per bank write bursts
system.mem_ctrl.dram.perBankWrBursts::5         31853                       # Per bank write bursts
system.mem_ctrl.dram.perBankWrBursts::6         53505                       # Per bank write bursts
system.mem_ctrl.dram.perBankWrBursts::7          9711                       # Per bank write bursts
system.mem_ctrl.dram.perBankWrBursts::8         44958                       # Per bank write bursts
system.mem_ctrl.dram.perBankWrBursts::9         59809                       # Per bank write bursts
system.mem_ctrl.dram.perBankWrBursts::10        61200                       # Per bank write bursts
system.mem_ctrl.dram.perBankWrBursts::11         7962                       # Per bank write bursts
system.mem_ctrl.dram.perBankWrBursts::12         7186                       # Per bank write bursts
system.mem_ctrl.dram.perBankWrBursts::13         7711                       # Per bank write bursts
system.mem_ctrl.dram.perBankWrBursts::14         7564                       # Per bank write bursts
system.mem_ctrl.dram.perBankWrBursts::15         8735                       # Per bank write bursts
system.mem_ctrl.dram.totQLat              40214950000                       # Total ticks spent queuing
system.mem_ctrl.dram.totBusLat            32795190000                       # Total ticks spent in databus transfers
system.mem_ctrl.dram.totMemAccLat        163196912500                       # Total ticks spent from burst creation until serviced by the DRAM
system.mem_ctrl.dram.avgQLat                  6131.23                       # Average queueing delay per DRAM burst
system.mem_ctrl.dram.avgBusLat                5000.00                       # Average bus latency per DRAM burst
system.mem_ctrl.dram.avgMemAccLat            24881.23                       # Average memory access latency per DRAM burst
system.mem_ctrl.dram.readRowHits              5593409                       # Number of row buffer hits during reads
system.mem_ctrl.dram.writeRowHits              257911                       # Number of row buffer hits during writes
system.mem_ctrl.dram.readRowHitRate             85.28                       # Row buffer hit rate for reads
system.mem_ctrl.dram.writeRowHitRate            75.83                       # Row buffer hit rate for writes
system.mem_ctrl.dram.bytesPerActivate::samples      1047845                       # Bytes accessed per row activation
system.mem_ctrl.dram.bytesPerActivate::mean   421.384949                       # Bytes accessed per row activation
system.mem_ctrl.dram.bytesPerActivate::gmean   257.481854                       # Bytes accessed per row activation
system.mem_ctrl.dram.bytesPerActivate::stdev   359.425464                       # Bytes accessed per row activation
system.mem_ctrl.dram.bytesPerActivate::0-127       292798     27.94%     27.94% # Bytes accessed per row activation
system.mem_ctrl.dram.bytesPerActivate::128-255       166230     15.86%     43.81% # Bytes accessed per row activation
system.mem_ctrl.dram.bytesPerActivate::256-383       103174      9.85%     53.65% # Bytes accessed per row activation
system.mem_ctrl.dram.bytesPerActivate::384-511        94656      9.03%     62.69% # Bytes accessed per row activation
system.mem_ctrl.dram.bytesPerActivate::512-639        16967      1.62%     64.31% # Bytes accessed per row activation
system.mem_ctrl.dram.bytesPerActivate::640-767       173027     16.51%     80.82% # Bytes accessed per row activation
system.mem_ctrl.dram.bytesPerActivate::768-895         7684      0.73%     81.55% # Bytes accessed per row activation
system.mem_ctrl.dram.bytesPerActivate::896-1023         9788      0.93%     82.49% # Bytes accessed per row activation
system.mem_ctrl.dram.bytesPerActivate::1024-1151       183521     17.51%    100.00% # Bytes accessed per row activation
system.mem_ctrl.dram.bytesPerActivate::total      1047845                       # Bytes accessed per row activation
system.mem_ctrl.dram.bytesRead              419778432                       # Total number of bytes read from DRAM
system.mem_ctrl.dram.bytesWritten            21768320                       # Total number of bytes written to DRAM
system.mem_ctrl.dram.avgRdBW               245.121357                       # Average DRAM read bandwidth in MiBytes/s
system.mem_ctrl.dram.avgWrBW                12.711182                       # Average DRAM write bandwidth in MiBytes/s
system.mem_ctrl.dram.peakBW                  12800.00                       # Theoretical peak bandwidth in MiByte/s
system.mem_ctrl.dram.busUtil                     2.01                       # Data bus utilization in percentage
system.mem_ctrl.dram.busUtilRead                 1.92                       # Data bus utilization in percentage for reads
system.mem_ctrl.dram.busUtilWrite                0.10                       # Data bus utilization in percentage for writes
system.mem_ctrl.dram.pageHitRate                84.81                       # Row buffer hit rate, read and write combined
system.mem_ctrl.dram.power_state.pwrStateResidencyTicks::UNDEFINED 1712533080000                       # Cumulative time (in ticks) in various power states
system.mem_ctrl.dram.rank0.actEnergy       2936175060                       # Energy for activate commands per rank (pJ)
system.mem_ctrl.dram.rank0.preEnergy       1560606465                       # Energy for precharge commands per rank (pJ)
system.mem_ctrl.dram.rank0.readEnergy     23137998240                       # Energy for read commands per rank (pJ)
system.mem_ctrl.dram.rank0.writeEnergy      704726100                       # Energy for write commands per rank (pJ)
system.mem_ctrl.dram.rank0.refreshEnergy 135185765520.000015                       # Energy for refresh commands per rank (pJ)
system.mem_ctrl.dram.rank0.actBackEnergy 561779063850                       # Energy for active background per rank (pJ)
system.mem_ctrl.dram.rank0.preBackEnergy 184535596320                       # Energy for precharge background per rank (pJ)
system.mem_ctrl.dram.rank0.actPowerDownEnergy            0                       # Energy for active power-down per rank (pJ)
system.mem_ctrl.dram.rank0.prePowerDownEnergy            0                       # Energy for precharge power-down per rank (pJ)
system.mem_ctrl.dram.rank0.selfRefreshEnergy            0                       # Energy for self refresh per rank (pJ)
system.mem_ctrl.dram.rank0.totalEnergy   909839931555                       # Total energy per rank (pJ)
system.mem_ctrl.dram.rank0.averagePower    531.283128                       # Core power per rank (mW)
system.mem_ctrl.dram.rank0.totalIdleTime            0                       # Total Idle time Per DRAM Rank
system.mem_ctrl.dram.rank0.pwrStateTime::IDLE 474469131500                       # Time in different power states
system.mem_ctrl.dram.rank0.pwrStateTime::REF  57185180000                       # Time in different power states
system.mem_ctrl.dram.rank0.pwrStateTime::SREF            0                       # Time in different power states
system.mem_ctrl.dram.rank0.pwrStateTime::PRE_PDN            0                       # Time in different power states
system.mem_ctrl.dram.rank0.pwrStateTime::ACT 1180878768500                       # Time in different power states
system.mem_ctrl.dram.rank0.pwrStateTime::ACT_PDN            0                       # Time in different power states
system.mem_ctrl.dram.rank1.actEnergy       4545459660                       # Energy for activate commands per rank (pJ)
system.mem_ctrl.dram.rank1.preEnergy       2415965310                       # Energy for precharge commands per rank (pJ)
system.mem_ctrl.dram.rank1.readEnergy     23693533080                       # Energy for read commands per rank (pJ)
system.mem_ctrl.dram.rank1.writeEnergy     1070752500                       # Energy for write commands per rank (pJ)
system.mem_ctrl.dram.rank1.refreshEnergy 135185765520.000015                       # Energy for refresh commands per rank (pJ)
system.mem_ctrl.dram.rank1.actBackEnergy 603175256850                       # Energy for active background per rank (pJ)
system.mem_ctrl.dram.rank1.preBackEnergy 149675644320                       # Energy for precharge background per rank (pJ)
system.mem_ctrl.dram.rank1.actPowerDownEnergy            0                       # Energy for active power-down per rank (pJ)
system.mem_ctrl.dram.rank1.prePowerDownEnergy            0                       # Energy for precharge power-down per rank (pJ)
system.mem_ctrl.dram.rank1.selfRefreshEnergy            0                       # Energy for self refresh per rank (pJ)
system.mem_ctrl.dram.rank1.totalEnergy   919762377240                       # Total energy per rank (pJ)
system.mem_ctrl.dram.rank1.averagePower    537.077145                       # Core power per rank (mW)
system.mem_ctrl.dram.rank1.totalIdleTime            0                       # Total Idle time Per DRAM Rank
system.mem_ctrl.dram.rank1.pwrStateTime::IDLE 381275958000                       # Time in different power states
system.mem_ctrl.dram.rank1.pwrStateTime::REF  57185180000                       # Time in different power states
system.mem_ctrl.dram.rank1.pwrStateTime::SREF            0                       # Time in different power states
system.mem_ctrl.dram.rank1.pwrStateTime::PRE_PDN            0                       # Time in different power states
system.mem_ctrl.dram.rank1.pwrStateTime::ACT 1274071942000                       # Time in different power states
system.mem_ctrl.dram.rank1.pwrStateTime::ACT_PDN            0                       # Time in different power states
system.mem_ctrl.power_state.pwrStateResidencyTicks::UNDEFINED 1712533080000                       # Cumulative time (in ticks) in various power states
system.membus.trans_dist::ReadResp            6462378                       # Transaction distribution
system.membus.trans_dist::WritebackDirty       340157                       # Transaction distribution
system.membus.trans_dist::CleanEvict          6226649                       # Transaction distribution
system.membus.trans_dist::ReadExReq            106804                       # Transaction distribution
system.membus.trans_dist::ReadExResp           106804                       # Transaction distribution
system.membus.trans_dist::ReadSharedReq       6462378                       # Transaction distribution
system.membus.pkt_count_system.l2cache.mem_side_port::system.mem_ctrl.port     19705170                       # Packet count per connected requestor and responder (bytes)
system.membus.pkt_count_system.l2cache.mem_side_port::total     19705170                       # Packet count per connected requestor and responder (bytes)
system.membus.pkt_count::total               19705170                       # Packet count per connected requestor and responder (bytes)
system.membus.pkt_size_system.l2cache.mem_side_port::system.mem_ctrl.port    442197696                       # Cumulative packet size per connected requestor and responder (bytes)
system.membus.pkt_size_system.l2cache.mem_side_port::total    442197696                       # Cumulative packet size per connected requestor and responder (bytes)
system.membus.pkt_size::total               442197696                       # Cumulative packet size per connected requestor and responder (bytes)
system.membus.snoops                                0                       # Total snoops (count)
system.membus.snoopTraffic                          0                       # Total snoop traffic (bytes)
system.membus.snoop_fanout::samples           6569182                       # Request fanout histogram
system.membus.snoop_fanout::mean                    0                       # Request fanout histogram
system.membus.snoop_fanout::stdev                   0                       # Request fanout histogram
system.membus.snoop_fanout::underflows              0      0.00%      0.00% # Request fanout histogram
system.membus.snoop_fanout::0                 6569182    100.00%    100.00% # Request fanout histogram
system.membus.snoop_fanout::1                       0      0.00%    100.00% # Request fanout histogram
system.membus.snoop_fanout::overflows               0      0.00%    100.00% # Request fanout histogram
system.membus.snoop_fanout::min_value               0                       # Request fanout histogram
system.membus.snoop_fanout::max_value               0                       # Request fanout histogram
system.membus.snoop_fanout::total             6569182                       # Request fanout histogram
system.membus.power_state.pwrStateResidencyTicks::UNDEFINED 1712533080000                       # Cumulative time (in ticks) in various power states
system.membus.reqLayer2.occupancy         14496616000                       # Layer occupancy (ticks)
system.membus.reqLayer2.utilization               0.8                       # Layer utilization (%)
system.membus.respLayer0.occupancy        34764084000                       # Layer occupancy (ticks)
system.membus.respLayer0.utilization              2.0                       # Layer utilization (%)

---------- End Simulation Statistics   ----------
