
---------- Begin Simulation Statistics ----------
final_tick                                   52889000                       # Number of ticks from beginning of simulation (restored from checkpoints and never reset)
host_inst_rate                                  72061                       # Simulator instruction rate (inst/s)
host_mem_usage                                 636600                       # Number of bytes of host memory used
host_op_rate                                   136021                       # Simulator op (including micro ops) rate (op/s)
host_seconds                                     0.08                       # Real time elapsed on the host
host_tick_rate                              671087758                       # Simulator tick rate (ticks/s)
sim_freq                                 1000000000000                       # Frequency of simulated ticks
sim_insts                                        5660                       # Number of instructions simulated
sim_ops                                         10713                       # Number of ops (including micro ops) simulated
sim_seconds                                  0.000053                       # Number of seconds simulated
sim_ticks                                    52889000                       # Number of ticks simulated
system.cpu.Branches                              1258                       # Number of branches fetched
system.cpu.committedInsts                        5660                       # Number of instructions committed
system.cpu.committedOps                         10713                       # Number of ops (including micro ops) committed
system.cpu.idle_fraction                     0.000000                       # Percentage of idle cycles
system.cpu.not_idle_fraction                 1.000000                       # Percentage of non-idle cycles
system.cpu.numCycles                            52889                       # number of cpu cycles simulated
system.cpu.numWorkItemsCompleted                    0                       # number of work items this cpu completed
system.cpu.numWorkItemsStarted                      0                       # number of work items this cpu started
system.cpu.num_busy_cycles               52888.999000                       # Number of busy cycles
system.cpu.num_cc_register_reads                 5753                       # number of times the CC registers were read
system.cpu.num_cc_register_writes                3719                       # number of times the CC registers were written
system.cpu.num_conditional_control_insts          939                       # number of instructions that are conditional controls
system.cpu.num_fp_alu_accesses                      0                       # Number of float alu accesses
system.cpu.num_fp_insts                             0                       # number of float instructions
system.cpu.num_fp_register_reads                    0                       # number of times the floating registers were read
system.cpu.num_fp_register_writes                   0                       # number of times the floating registers were written
system.cpu.num_func_calls                         237                       # number of times a function call or return occured
system.cpu.num_idle_cycles                   0.001000                       # Number of idle cycles
system.cpu.num_int_alu_accesses                 10668                       # Number of integer alu accesses
system.cpu.num_int_insts                        10668                       # number of integer instructions
system.cpu.num_int_register_reads               20557                       # number of times the integer registers were read
system.cpu.num_int_register_writes               8277                       # number of times the integer registers were written
system.cpu.num_load_insts                        1359                       # Number of load instructions
system.cpu.num_mem_refs                          2568                       # number of memory refs
system.cpu.num_store_insts                       1209                       # Number of store instructions
system.cpu.num_vec_alu_accesses                     0                       # Number of vector alu accesses
system.cpu.num_vec_insts                            0                       # number of vector instructions
system.cpu.num_vec_register_reads                   0                       # number of times the vector registers were read
system.cpu.num_vec_register_writes                  0                       # number of times the vector registers were written
system.cpu.op_class::No_OpClass                    38      0.35%      0.35% # Class of executed instruction
system.cpu.op_class::IntAlu                      8087     75.40%     75.75% # Class of executed instruction
system.cpu.op_class::IntMult                        5      0.05%     75.80% # Class of executed instruction
system.cpu.op_class::IntDiv                        28      0.26%     76.06% # Class of executed instruction
system.cpu.op_class::FloatAdd                       0      0.00%     76.06% # Class of executed instruction
system.cpu.op_class::FloatCmp                       0      0.00%     76.06% # Class of executed instruction
system.cpu.op_class::FloatCvt                       0      0.00%     76.06% # Class of executed instruction
system.cpu.op_class::FloatMult                      0      0.00%     76.06% # Class of executed instruction
system.cpu.op_class::FloatMultAcc                   0      0.00%     76.06% # Class of executed instruction
system.cpu.op_class::FloatDiv                       0      0.00%     76.06% # Class of executed instruction
system.cpu.op_class::FloatMisc                      0      0.00%     76.06% # Class of executed instruction
system.cpu.op_class::FloatSqrt                      0      0.00%     76.06% # Class of executed instruction
system.cpu.op_class::SimdAdd                        0      0.00%     76.06% # Class of executed instruction
system.cpu.op_class::SimdAddAcc                     0      0.00%     76.06% # Class of executed instruction
system.cpu.op_class::SimdAlu                        0      0.00%     76.06% # Class of executed instruction
system.cpu.op_class::SimdCmp                        0      0.00%     76.06% # Class of executed instruction
system.cpu.op_class::SimdCvt                        0      0.00%     76.06% # Class of executed instruction
system.cpu.op_class::SimdMisc                       0      0.00%     76.06% # Class of executed instruction
system.cpu.op_class::SimdMult                       0      0.00%     76.06% # Class of executed instruction
system.cpu.op_class::SimdMultAcc                    0      0.00%     76.06% # Class of executed instruction
system.cpu.op_class::SimdShift                      0      0.00%     76.06% # Class of executed instruction
system.cpu.op_class::SimdShiftAcc                   0      0.00%     76.06% # Class of executed instruction
system.cpu.op_class::SimdDiv                        0      0.00%     76.06% # Class of executed instruction
system.cpu.op_class::SimdSqrt                       0      0.00%     76.06% # Class of executed instruction
system.cpu.op_class::SimdFloatAdd                   0      0.00%     76.06% # Class of executed instruction
system.cpu.op_class::SimdFloatAlu                   0      0.00%     76.06% # Class of executed instruction
system.cpu.op_class::SimdFloatCmp                   0      0.00%     76.06% # Class of executed instruction
system.cpu.op_class::SimdFloatCvt                   0      0.00%     76.06% # Class of executed instruction
system.cpu.op_class::SimdFloatDiv                   0      0.00%     76.06% # Class of executed instruction
system.cpu.op_class::SimdFloatMisc                  0      0.00%     76.06% # Class of executed instruction
system.cpu.op_class::SimdFloatMult                  0      0.00%     76.06% # Class of executed instruction
system.cpu.op_class::SimdFloatMultAcc               0      0.00%     76.06% # Class of executed instruction
system.cpu.op_class::SimdFloatSqrt                  0      0.00%     76.06% # Class of executed instruction
system.cpu.op_class::SimdReduceAdd                  0      0.00%     76.06% # Class of executed instruction
system.cpu.op_class::SimdReduceAlu                  0      0.00%     76.06% # Class of executed instruction
system.cpu.op_class::SimdReduceCmp                  0      0.00%     76.06% # Class of executed instruction
system.cpu.op_class::SimdFloatReduceAdd             0      0.00%     76.06% # Class of executed instruction
system.cpu.op_class::SimdFloatReduceCmp             0      0.00%     76.06% # Class of executed instruction
system.cpu.op_class::SimdAes                        0      0.00%     76.06% # Class of executed instruction
system.cpu.op_class::SimdAesMix                     0      0.00%     76.06% # Class of executed instruction
system.cpu.op_class::SimdSha1Hash                   0      0.00%     76.06% # Class of executed instruction
system.cpu.op_class::SimdSha1Hash2                  0      0.00%     76.06% # Class of executed instruction
system.cpu.op_class::SimdSha256Hash                 0      0.00%     76.06% # Class of executed instruction
system.cpu.op_class::SimdSha256Hash2                0      0.00%     76.06% # Class of executed instruction
system.cpu.op_class::SimdShaSigma2                  0      0.00%     76.06% # Class of executed instruction
system.cpu.op_class::SimdShaSigma3                  0      0.00%     76.06% # Class of executed instruction
system.cpu.op_class::SimdPredAlu                    0      0.00%     76.06% # Class of executed instruction
system.cpu.op_class::MemRead                     1359     12.67%     88.73% # Class of executed instruction
system.cpu.op_class::MemWrite                    1209     11.27%    100.00% # Class of executed instruction
system.cpu.op_class::FloatMemRead                   0      0.00%    100.00% # Class of executed instruction
system.cpu.op_class::FloatMemWrite                  0      0.00%    100.00% # Class of executed instruction
system.cpu.op_class::IprAccess                      0      0.00%    100.00% # Class of executed instruction
system.cpu.op_class::InstPrefetch                   0      0.00%    100.00% # Class of executed instruction
system.cpu.op_class::total                      10726                       # Class of executed instruction
system.cpu.workload.numSyscalls                    10                       # Number of system calls
system.l2bus.snoop_filter.hit_multi_requests            0                       # Number of requests hitting in the snoop filter with multiple (>1) holders of the requested data.
system.l2bus.snoop_filter.hit_multi_snoops            0                       # Number of snoops hitting in the snoop filter with multiple (>1) holders of the requested data.
system.l2bus.snoop_filter.hit_single_requests           67                       # Number of requests hitting in the snoop filter with a single holder of the requested data.
system.l2bus.snoop_filter.hit_single_snoops            0                       # Number of snoops hitting in the snoop filter with a single holder of the requested data.
system.l2bus.snoop_filter.tot_requests            403                       # Total number of requests made to the snoop filter.
system.l2bus.snoop_filter.tot_snoops                0                       # Total number of snoops made to the snoop filter.
system.membus.snoop_filter.hit_multi_requests            0                       # Number of requests hitting in the snoop filter with multiple (>1) holders of the requested data.
system.membus.snoop_filter.hit_multi_snoops            0                       # Number of snoops hitting in the snoop filter with multiple (>1) holders of the requested data.
system.membus.snoop_filter.hit_single_requests            0                       # Number of requests hitting in the snoop filter with a single holder of the requested data.
system.membus.snoop_filter.hit_single_snoops            0                       # Number of snoops hitting in the snoop filter with a single holder of the requested data.
system.membus.snoop_filter.tot_requests           335                       # Total number of requests made to the snoop filter.
system.membus.snoop_filter.tot_snoops               0                       # Total number of snoops made to the snoop filter.
system.clk_domain.clock                          1000                       # Clock period in ticks
system.clk_domain.voltage_domain.voltage            1                       # Voltage in Volts
system.cpu.dcache.demand_hits::.cpu.data         2470                       # number of demand (read+write) hits
system.cpu.dcache.demand_hits::total             2470                       # number of demand (read+write) hits
system.cpu.dcache.overall_hits::.cpu.data         2470                       # number of overall hits
system.cpu.dcache.overall_hits::total            2470                       # number of overall hits
system.cpu.dcache.demand_misses::.cpu.data           95                       # number of demand (read+write) misses
system.cpu.dcache.demand_misses::total             95                       # number of demand (read+write) misses
system.cpu.dcache.overall_misses::.cpu.data           95                       # number of overall misses
system.cpu.dcache.overall_misses::total            95                       # number of overall misses
system.cpu.dcache.demand_miss_latency::.cpu.data     10078000                       # number of demand (read+write) miss cycles
system.cpu.dcache.demand_miss_latency::total     10078000                       # number of demand (read+write) miss cycles
system.cpu.dcache.overall_miss_latency::.cpu.data     10078000                       # number of overall miss cycles
system.cpu.dcache.overall_miss_latency::total     10078000                       # number of overall miss cycles
system.cpu.dcache.demand_accesses::.cpu.data         2565                       # number of demand (read+write) accesses
system.cpu.dcache.demand_accesses::total         2565                       # number of demand (read+write) accesses
system.cpu.dcache.overall_accesses::.cpu.data         2565                       # number of overall (read+write) accesses
system.cpu.dcache.overall_accesses::total         2565                       # number of overall (read+write) accesses
system.cpu.dcache.demand_miss_rate::.cpu.data     0.037037                       # miss rate for demand accesses
system.cpu.dcache.demand_miss_rate::total     0.037037                       # miss rate for demand accesses
system.cpu.dcache.overall_miss_rate::.cpu.data     0.037037                       # miss rate for overall accesses
system.cpu.dcache.overall_miss_rate::total     0.037037                       # miss rate for overall accesses
system.cpu.dcache.demand_avg_miss_latency::.cpu.data 106084.210526                       # average overall miss latency
system.cpu.dcache.demand_avg_miss_latency::total 106084.210526                       # average overall miss latency
system.cpu.dcache.overall_avg_miss_latency::.cpu.data 106084.210526                       # average overall miss latency
system.cpu.dcache.overall_avg_miss_latency::total 106084.210526                       # average overall miss latency
system.cpu.dcache.blocked_cycles::no_mshrs            0                       # number of cycles access was blocked
system.cpu.dcache.blocked_cycles::no_targets            0                       # number of cycles access was blocked
system.cpu.dcache.blocked::no_mshrs                 0                       # number of cycles access was blocked
system.cpu.dcache.blocked::no_targets               0                       # number of cycles access was blocked
system.cpu.dcache.avg_blocked_cycles::no_mshrs          nan                       # average number of cycles each access was blocked
system.cpu.dcache.avg_blocked_cycles::no_targets          nan                       # average number of cycles each access was blocked
system.cpu.dcache.demand_mshr_misses::.cpu.data           95                       # number of demand (read+write) MSHR misses
system.cpu.dcache.demand_mshr_misses::total           95                       # number of demand (read+write) MSHR misses
system.cpu.dcache.overall_mshr_misses::.cpu.data           95                       # number of overall MSHR misses
system.cpu.dcache.overall_mshr_misses::total           95                       # number of overall MSHR misses
system.cpu.dcache.demand_mshr_miss_latency::.cpu.data      9888000                       # number of demand (read+write) MSHR miss cycles
system.cpu.dcache.demand_mshr_miss_latency::total      9888000                       # number of demand (read+write) MSHR miss cycles
system.cpu.dcache.overall_mshr_miss_latency::.cpu.data      9888000                       # number of overall MSHR miss cycles
system.cpu.dcache.overall_mshr_miss_latency::total      9888000                       # number of overall MSHR miss cycles
system.cpu.dcache.demand_mshr_miss_rate::.cpu.data     0.037037                       # mshr miss rate for demand accesses
system.cpu.dcache.demand_mshr_miss_rate::total     0.037037                       # mshr miss rate for demand accesses
system.cpu.dcache.overall_mshr_miss_rate::.cpu.data     0.037037                       # mshr miss rate for overall accesses
system.cpu.dcache.overall_mshr_miss_rate::total     0.037037                       # mshr miss rate for overall accesses
system.cpu.dcache.demand_avg_mshr_miss_latency::.cpu.data 104084.210526                       # average overall mshr miss latency
system.cpu.dcache.demand_avg_mshr_miss_latency::total 104084.210526                       # average overall mshr miss latency
system.cpu.dcache.overall_avg_mshr_miss_latency::.cpu.data 104084.210526                       # average overall mshr miss latency
system.cpu.dcache.overall_avg_mshr_miss_latency::total 104084.210526                       # average overall mshr miss latency
system.cpu.dcache.replacements                      0                       # number of replacements
system.cpu.dcache.ReadReq_hits::.cpu.data         1311                       # number of ReadReq hits
system.cpu.dcache.ReadReq_hits::total            1311                       # number of ReadReq hits
system.cpu.dcache.ReadReq_misses::.cpu.data           48                       # number of ReadReq misses
system.cpu.dcache.ReadReq_misses::total            48                       # number of ReadReq misses
system.cpu.dcache.ReadReq_miss_latency::.cpu.data      5064000                       # number of ReadReq miss cycles
system.cpu.dcache.ReadReq_miss_latency::total      5064000                       # number of ReadReq miss cycles
system.cpu.dcache.ReadReq_accesses::.cpu.data         1359                       # number of ReadReq accesses(hits+misses)
system.cpu.dcache.ReadReq_accesses::total         1359                       # number of ReadReq accesses(hits+misses)
system.cpu.dcache.ReadReq_miss_rate::.cpu.data     0.035320                       # miss rate for ReadReq accesses
system.cpu.dcache.ReadReq_miss_rate::total     0.035320                       # miss rate for ReadReq accesses
system.cpu.dcache.ReadReq_avg_miss_latency::.cpu.data       105500                       # average ReadReq miss latency
system.cpu.dcache.ReadReq_avg_miss_latency::total       105500                       # average ReadReq miss latency
system.cpu.dcache.ReadReq_mshr_misses::.cpu.data           48                       # number of ReadReq MSHR misses
system.cpu.dcache.ReadReq_mshr_misses::total           48                       # number of ReadReq MSHR misses
system.cpu.dcache.ReadReq_mshr_miss_latency::.cpu.data      4968000                       # number of ReadReq MSHR miss cycles
system.cpu.dcache.ReadReq_mshr_miss_latency::total      4968000                       # number of ReadReq MSHR miss cycles
system.cpu.dcache.ReadReq_mshr_miss_rate::.cpu.data     0.035320                       # mshr miss rate for ReadReq accesses
system.cpu.dcache.ReadReq_mshr_miss_rate::total     0.035320                       # mshr miss rate for ReadReq accesses
system.cpu.dcache.ReadReq_avg_mshr_miss_latency::.cpu.data       103500                       # average ReadReq mshr miss latency
system.cpu.dcache.ReadReq_avg_mshr_miss_latency::total       103500                       # average ReadReq mshr miss latency
system.cpu.dcache.WriteReq_hits::.cpu.data         1159                       # number of WriteReq hits
system.cpu.dcache.WriteReq_hits::total           1159                       # number of WriteReq hits
system.cpu.dcache.WriteReq_misses::.cpu.data           47                       # number of WriteReq misses
system.cpu.dcache.WriteReq_misses::total           47                       # number of WriteReq misses
system.cpu.dcache.WriteReq_miss_latency::.cpu.data      5014000                       # number of WriteReq miss cycles
system.cpu.dcache.WriteReq_miss_latency::total      5014000                       # number of WriteReq miss cycles
system.cpu.dcache.WriteReq_accesses::.cpu.data         1206                       # number of WriteReq accesses(hits+misses)
system.cpu.dcache.WriteReq_accesses::total         1206                       # number of WriteReq accesses(hits+misses)
system.cpu.dcache.WriteReq_miss_rate::.cpu.data     0.038972                       # miss rate for WriteReq accesses
system.cpu.dcache.WriteReq_miss_rate::total     0.038972                       # miss rate for WriteReq accesses
system.cpu.dcache.WriteReq_avg_miss_latency::.cpu.data 106680.851064                       # average WriteReq miss latency
system.cpu.dcache.WriteReq_avg_miss_latency::total 106680.851064                       # average WriteReq miss latency
system.cpu.dcache.WriteReq_mshr_misses::.cpu.data           47                       # number of WriteReq MSHR misses
system.cpu.dcache.WriteReq_mshr_misses::total           47                       # number of WriteReq MSHR misses
system.cpu.dcache.WriteReq_mshr_miss_latency::.cpu.data      4920000                       # number of WriteReq MSHR miss cycles
system.cpu.dcache.WriteReq_mshr_miss_latency::total      4920000                       # number of WriteReq MSHR miss cycles
system.cpu.dcache.WriteReq_mshr_miss_rate::.cpu.data     0.038972                       # mshr miss rate for WriteReq accesses
system.cpu.dcache.WriteReq_mshr_miss_rate::total     0.038972                       # mshr miss rate for WriteReq accesses
system.cpu.dcache.WriteReq_avg_mshr_miss_latency::.cpu.data 104680.851064                       # average WriteReq mshr miss latency
system.cpu.dcache.WriteReq_avg_mshr_miss_latency::total 104680.851064                       # average WriteReq mshr miss latency
system.cpu.dcache.power_state.pwrStateResidencyTicks::UNDEFINED     52889000                       # Cumulative time (in ticks) in various power states
system.cpu.dcache.tags.tagsinuse            60.324983                       # Cycle average of tags in use
system.cpu.dcache.tags.total_refs                2565                       # Total number of references to valid blocks.
system.cpu.dcache.tags.sampled_refs                95                       # Sample count of references to valid blocks.
system.cpu.dcache.tags.avg_refs                    27                       # Average number of references to valid blocks.
system.cpu.dcache.tags.warmup_cycle            218000                       # Cycle when the warmup percentage was hit.
system.cpu.dcache.tags.occ_blocks::.cpu.data    60.324983                       # Average occupied blocks per requestor
system.cpu.dcache.tags.occ_percent::.cpu.data     0.058911                       # Average percentage of cache occupancy
system.cpu.dcache.tags.occ_percent::total     0.058911                       # Average percentage of cache occupancy
system.cpu.dcache.tags.occ_task_id_blocks::1024           95                       # Occupied blocks per task id
system.cpu.dcache.tags.age_task_id_blocks_1024::0            8                       # Occupied blocks per task id
system.cpu.dcache.tags.age_task_id_blocks_1024::1           87                       # Occupied blocks per task id
system.cpu.dcache.tags.occ_task_id_percent::1024     0.092773                       # Percentage of cache occupancy per task id
system.cpu.dcache.tags.tag_accesses              5225                       # Number of tag accesses
system.cpu.dcache.tags.data_accesses             5225                       # Number of data accesses
system.cpu.dcache.tags.power_state.pwrStateResidencyTicks::UNDEFINED     52889000                       # Cumulative time (in ticks) in various power states
system.cpu.dtb.rdAccesses                        1359                       # TLB accesses on read requests
system.cpu.dtb.wrAccesses                        1209                       # TLB accesses on write requests
system.cpu.dtb.rdMisses                             9                       # TLB misses on read requests
system.cpu.dtb.wrMisses                            10                       # TLB misses on write requests
system.cpu.dtb.walker.power_state.pwrStateResidencyTicks::UNDEFINED     52889000                       # Cumulative time (in ticks) in various power states
system.cpu.icache.demand_hits::.cpu.inst         6790                       # number of demand (read+write) hits
system.cpu.icache.demand_hits::total             6790                       # number of demand (read+write) hits
system.cpu.icache.overall_hits::.cpu.inst         6790                       # number of overall hits
system.cpu.icache.overall_hits::total            6790                       # number of overall hits
system.cpu.icache.demand_misses::.cpu.inst          242                       # number of demand (read+write) misses
system.cpu.icache.demand_misses::total            242                       # number of demand (read+write) misses
system.cpu.icache.overall_misses::.cpu.inst          242                       # number of overall misses
system.cpu.icache.overall_misses::total           242                       # number of overall misses
system.cpu.icache.demand_miss_latency::.cpu.inst     24291000                       # number of demand (read+write) miss cycles
system.cpu.icache.demand_miss_latency::total     24291000                       # number of demand (read+write) miss cycles
system.cpu.icache.overall_miss_latency::.cpu.inst     24291000                       # number of overall miss cycles
system.cpu.icache.overall_miss_latency::total     24291000                       # number of overall miss cycles
system.cpu.icache.demand_accesses::.cpu.inst         7032                       # number of demand (read+write) accesses
system.cpu.icache.demand_accesses::total         7032                       # number of demand (read+write) accesses
system.cpu.icache.overall_accesses::.cpu.inst         7032                       # number of overall (read+write) accesses
system.cpu.icache.overall_accesses::total         7032                       # number of overall (read+write) accesses
system.cpu.icache.demand_miss_rate::.cpu.inst     0.034414                       # miss rate for demand accesses
system.cpu.icache.demand_miss_rate::total     0.034414                       # miss rate for demand accesses
system.cpu.icache.overall_miss_rate::.cpu.inst     0.034414                       # miss rate for overall accesses
system.cpu.icache.overall_miss_rate::total     0.034414                       # miss rate for overall accesses
system.cpu.icache.demand_avg_miss_latency::.cpu.inst 100376.033058                       # average overall miss latency
system.cpu.icache.demand_avg_miss_latency::total 100376.033058                       # average overall miss latency
system.cpu.icache.overall_avg_miss_latency::.cpu.inst 100376.033058                       # average overall miss latency
system.cpu.icache.overall_avg_miss_latency::total 100376.033058                       # average overall miss latency
system.cpu.icache.blocked_cycles::no_mshrs            0                       # number of cycles access was blocked
system.cpu.icache.blocked_cycles::no_targets            0                       # number of cycles access was blocked
system.cpu.icache.blocked::no_mshrs                 0                       # number of cycles access was blocked
system.cpu.icache.blocked::no_targets               0                       # number of cycles access was blocked
system.cpu.icache.avg_blocked_cycles::no_mshrs          nan                       # average number of cycles each access was blocked
system.cpu.icache.avg_blocked_cycles::no_targets          nan                       # average number of cycles each access was blocked
system.cpu.icache.demand_mshr_misses::.cpu.inst          242                       # number of demand (read+write) MSHR misses
system.cpu.icache.demand_mshr_misses::total          242                       # number of demand (read+write) MSHR misses
system.cpu.icache.overall_mshr_misses::.cpu.inst          242                       # number of overall MSHR misses
system.cpu.icache.overall_mshr_misses::total          242                       # number of overall MSHR misses
system.cpu.icache.demand_mshr_miss_latency::.cpu.inst     23807000                       # number of demand (read+write) MSHR miss cycles
system.cpu.icache.demand_mshr_miss_latency::total     23807000                       # number of demand (read+write) MSHR miss cycles
system.cpu.icache.overall_mshr_miss_latency::.cpu.inst     23807000                       # number of overall MSHR miss cycles
system.cpu.icache.overall_mshr_miss_latency::total     23807000                       # number of overall MSHR miss cycles
system.cpu.icache.demand_mshr_miss_rate::.cpu.inst     0.034414                       # mshr miss rate for demand accesses
system.cpu.icache.demand_mshr_miss_rate::total     0.034414                       # mshr miss rate for demand accesses
system.cpu.icache.overall_mshr_miss_rate::.cpu.inst     0.034414                       # mshr miss rate for overall accesses
system.cpu.icache.overall_mshr_miss_rate::total     0.034414                       # mshr miss rate for overall accesses
system.cpu.icache.demand_avg_mshr_miss_latency::.cpu.inst 98376.033058                       # average overall mshr miss latency
system.cpu.icache.demand_avg_mshr_miss_latency::total 98376.033058                       # average overall mshr miss latency
system.cpu.icache.overall_avg_mshr_miss_latency::.cpu.inst 98376.033058                       # average overall mshr miss latency
system.cpu.icache.overall_avg_mshr_miss_latency::total 98376.033058                       # average overall mshr miss latency
system.cpu.icache.replacements                     66                       # number of replacements
system.cpu.icache.ReadReq_hits::.cpu.inst         6790                       # number of ReadReq hits
system.cpu.icache.ReadReq_hits::total            6790                       # number of ReadReq hits
system.cpu.icache.ReadReq_misses::.cpu.inst          242                       # number of ReadReq misses
system.cpu.icache.ReadReq_misses::total           242                       # number of ReadReq misses
system.cpu.icache.ReadReq_miss_latency::.cpu.inst     24291000                       # number of ReadReq miss cycles
system.cpu.icache.ReadReq_miss_latency::total     24291000                       # number of ReadReq miss cycles
system.cpu.icache.ReadReq_accesses::.cpu.inst         7032                       # number of ReadReq accesses(hits+misses)
system.cpu.icache.ReadReq_accesses::total         7032                       # number of ReadReq accesses(hits+misses)
system.cpu.icache.ReadReq_miss_rate::.cpu.inst     0.034414                       # miss rate for ReadReq accesses
system.cpu.icache.ReadReq_miss_rate::total     0.034414                       # miss rate for ReadReq accesses
system.cpu.icache.ReadReq_avg_miss_latency::.cpu.inst 100376.033058                       # average ReadReq miss latency
system.cpu.icache.ReadReq_avg_miss_latency::total 100376.033058                       # average ReadReq miss latency
system.cpu.icache.ReadReq_mshr_misses::.cpu.inst          242                       # number of ReadReq MSHR misses
system.cpu.icache.ReadReq_mshr_misses::total          242                       # number of ReadReq MSHR misses
system.cpu.icache.ReadReq_mshr_miss_latency::.cpu.inst     23807000                       # number of ReadReq MSHR miss cycles
system.cpu.icache.ReadReq_mshr_miss_latency::total     23807000                       # number of ReadReq MSHR miss cycles
system.cpu.icache.ReadReq_mshr_miss_rate::.cpu.inst     0.034414                       # mshr miss rate for ReadReq accesses
system.cpu.icache.ReadReq_mshr_miss_rate::total     0.034414                       # mshr miss rate for ReadReq accesses
system.cpu.icache.ReadReq_avg_mshr_miss_latency::.cpu.inst 98376.033058                       # average ReadReq mshr miss latency
system.cpu.icache.ReadReq_avg_mshr_miss_latency::total 98376.033058                       # average ReadReq mshr miss latency
system.cpu.icache.power_state.pwrStateResidencyTicks::UNDEFINED     52889000                       # Cumulative time (in ticks) in various power states
system.cpu.icache.tags.tagsinuse           103.900623                       # Cycle average of tags in use
system.cpu.icache.tags.total_refs                7032                       # Total number of references to valid blocks.
system.cpu.icache.tags.sampled_refs               242                       # Sample count of references to valid blocks.
system.cpu.icache.tags.avg_refs             29.057851                       # Average number of references to valid blocks.
system.cpu.icache.tags.warmup_cycle            107000                       # Cycle when the warmup percentage was hit.
system.cpu.icache.tags.occ_blocks::.cpu.inst   103.900623                       # Average occupied blocks per requestor
system.cpu.icache.tags.occ_percent::.cpu.inst     0.405862                       # Average percentage of cache occupancy
system.cpu.icache.tags.occ_percent::total     0.405862                       # Average percentage of cache occupancy
system.cpu.icache.tags.occ_task_id_blocks::1024          176                       # Occupied blocks per task id
system.cpu.icache.tags.age_task_id_blocks_1024::0           48                       # Occupied blocks per task id
system.cpu.icache.tags.age_task_id_blocks_1024::1          128                       # Occupied blocks per task id
system.cpu.icache.tags.occ_task_id_percent::1024     0.687500                       # Percentage of cache occupancy per task id
system.cpu.icache.tags.tag_accesses             14306                       # Number of tag accesses
system.cpu.icache.tags.data_accesses            14306                       # Number of data accesses
system.cpu.icache.tags.power_state.pwrStateResidencyTicks::UNDEFINED     52889000                       # Cumulative time (in ticks) in various power states
system.cpu.interrupts.clk_domain.clock          16000                       # Clock period in ticks
system.cpu.itb.rdAccesses                           0                       # TLB accesses on read requests
system.cpu.itb.wrAccesses                        7032                       # TLB accesses on write requests
system.cpu.itb.rdMisses                             0                       # TLB misses on read requests
system.cpu.itb.wrMisses                            28                       # TLB misses on write requests
system.cpu.itb.walker.power_state.pwrStateResidencyTicks::UNDEFINED     52889000                       # Cumulative time (in ticks) in various power states
system.cpu.power_state.pwrStateResidencyTicks::ON     52889000                       # Cumulative time (in ticks) in various power states
system.cpu.thread_0.numInsts                        0                       # Number of Instructions committed
system.cpu.thread_0.numOps                          0                       # Number of Ops committed
system.cpu.thread_0.numMemRefs                      0                       # Number of Memory References
system.l2bus.trans_dist::ReadResp                 290                       # Transaction distribution
system.l2bus.trans_dist::CleanEvict                66                       # Transaction distribution
system.l2bus.trans_dist::ReadExReq                 47                       # Transaction distribution
system.l2bus.trans_dist::ReadExResp                47                       # Transaction distribution
system.l2bus.trans_dist::ReadSharedReq            290                       # Transaction distribution
system.l2bus.pkt_count_system.cpu.icache.mem_side_port::system.l2cache.cpu_side_port          550                       # Packet count per connected requestor and responder (bytes)
system.l2bus.pkt_count_system.cpu.dcache.mem_side_port::system.l2cache.cpu_side_port          190                       # Packet count per connected requestor and responder (bytes)
system.l2bus.pkt_count::total                     740                       # Packet count per connected requestor and responder (bytes)
system.l2bus.pkt_size_system.cpu.icache.mem_side_port::system.l2cache.cpu_side_port        15488                       # Cumulative packet size per connected requestor and responder (bytes)
system.l2bus.pkt_size_system.cpu.dcache.mem_side_port::system.l2cache.cpu_side_port         6080                       # Cumulative packet size per connected requestor and responder (bytes)
system.l2bus.pkt_size::total                    21568                       # Cumulative packet size per connected requestor and responder (bytes)
system.l2bus.snoops                                 0                       # Total snoops (count)
system.l2bus.snoopTraffic                           0                       # Total snoop traffic (bytes)
system.l2bus.snoop_fanout::samples                337                       # Request fanout histogram
system.l2bus.snoop_fanout::mean              0.002967                       # Request fanout histogram
system.l2bus.snoop_fanout::stdev             0.054473                       # Request fanout histogram
system.l2bus.snoop_fanout::underflows               0      0.00%      0.00% # Request fanout histogram
system.l2bus.snoop_fanout::0                      336     99.70%     99.70% # Request fanout histogram
system.l2bus.snoop_fanout::1                        1      0.30%    100.00% # Request fanout histogram
system.l2bus.snoop_fanout::2                        0      0.00%    100.00% # Request fanout histogram
system.l2bus.snoop_fanout::overflows                0      0.00%    100.00% # Request fanout histogram
system.l2bus.snoop_fanout::min_value                0                       # Request fanout histogram
system.l2bus.snoop_fanout::max_value                1                       # Request fanout histogram
system.l2bus.snoop_fanout::total                  337                       # Request fanout histogram
system.l2bus.power_state.pwrStateResidencyTicks::UNDEFINED     52889000                       # Cumulative time (in ticks) in various power states
system.l2bus.reqLayer0.occupancy               403000                       # Layer occupancy (ticks)
system.l2bus.reqLayer0.utilization                0.8                       # Layer utilization (%)
system.l2bus.respLayer0.occupancy              726000                       # Layer occupancy (ticks)
system.l2bus.respLayer0.utilization               1.4                       # Layer utilization (%)
system.l2bus.respLayer1.occupancy              285000                       # Layer occupancy (ticks)
system.l2bus.respLayer1.utilization               0.5                       # Layer utilization (%)
system.l2cache.demand_hits::.cpu.inst               2                       # number of demand (read+write) hits
system.l2cache.demand_hits::total                   2                       # number of demand (read+write) hits
system.l2cache.overall_hits::.cpu.inst              2                       # number of overall hits
system.l2cache.overall_hits::total                  2                       # number of overall hits
system.l2cache.demand_misses::.cpu.inst           240                       # number of demand (read+write) misses
system.l2cache.demand_misses::.cpu.data            95                       # number of demand (read+write) misses
system.l2cache.demand_misses::total               335                       # number of demand (read+write) misses
system.l2cache.overall_misses::.cpu.inst          240                       # number of overall misses
system.l2cache.overall_misses::.cpu.data           95                       # number of overall misses
system.l2cache.overall_misses::total              335                       # number of overall misses
system.l2cache.demand_miss_latency::.cpu.inst     23037000                       # number of demand (read+write) miss cycles
system.l2cache.demand_miss_latency::.cpu.data      9603000                       # number of demand (read+write) miss cycles
system.l2cache.demand_miss_latency::total     32640000                       # number of demand (read+write) miss cycles
system.l2cache.overall_miss_latency::.cpu.inst     23037000                       # number of overall miss cycles
system.l2cache.overall_miss_latency::.cpu.data      9603000                       # number of overall miss cycles
system.l2cache.overall_miss_latency::total     32640000                       # number of overall miss cycles
system.l2cache.demand_accesses::.cpu.inst          242                       # number of demand (read+write) accesses
system.l2cache.demand_accesses::.cpu.data           95                       # number of demand (read+write) accesses
system.l2cache.demand_accesses::total             337                       # number of demand (read+write) accesses
system.l2cache.overall_accesses::.cpu.inst          242                       # number of overall (read+write) accesses
system.l2cache.overall_accesses::.cpu.data           95                       # number of overall (read+write) accesses
system.l2cache.overall_accesses::total            337                       # number of overall (read+write) accesses
system.l2cache.demand_miss_rate::.cpu.inst     0.991736                       # miss rate for demand accesses
system.l2cache.demand_miss_rate::.cpu.data            1                       # miss rate for demand accesses
system.l2cache.demand_miss_rate::total       0.994065                       # miss rate for demand accesses
system.l2cache.overall_miss_rate::.cpu.inst     0.991736                       # miss rate for overall accesses
system.l2cache.overall_miss_rate::.cpu.data            1                       # miss rate for overall accesses
system.l2cache.overall_miss_rate::total      0.994065                       # miss rate for overall accesses
system.l2cache.demand_avg_miss_latency::.cpu.inst 95987.500000                       # average overall miss latency
system.l2cache.demand_avg_miss_latency::.cpu.data 101084.210526                       # average overall miss latency
system.l2cache.demand_avg_miss_latency::total 97432.835821                       # average overall miss latency
system.l2cache.overall_avg_miss_latency::.cpu.inst 95987.500000                       # average overall miss latency
system.l2cache.overall_avg_miss_latency::.cpu.data 101084.210526                       # average overall miss latency
system.l2cache.overall_avg_miss_latency::total 97432.835821                       # average overall miss latency
system.l2cache.blocked_cycles::no_mshrs             0                       # number of cycles access was blocked
system.l2cache.blocked_cycles::no_targets            0                       # number of cycles access was blocked
system.l2cache.blocked::no_mshrs                    0                       # number of cycles access was blocked
system.l2cache.blocked::no_targets                  0                       # number of cycles access was blocked
system.l2cache.avg_blocked_cycles::no_mshrs          nan                       # average number of cycles each access was blocked
system.l2cache.avg_blocked_cycles::no_targets          nan                       # average number of cycles each access was blocked
system.l2cache.demand_mshr_misses::.cpu.inst          240                       # number of demand (read+write) MSHR misses
system.l2cache.demand_mshr_misses::.cpu.data           95                       # number of demand (read+write) MSHR misses
system.l2cache.demand_mshr_misses::total          335                       # number of demand (read+write) MSHR misses
system.l2cache.overall_mshr_misses::.cpu.inst          240                       # number of overall MSHR misses
system.l2cache.overall_mshr_misses::.cpu.data           95                       # number of overall MSHR misses
system.l2cache.overall_mshr_misses::total          335                       # number of overall MSHR misses
system.l2cache.demand_mshr_miss_latency::.cpu.inst     18237000                       # number of demand (read+write) MSHR miss cycles
system.l2cache.demand_mshr_miss_latency::.cpu.data      7703000                       # number of demand (read+write) MSHR miss cycles
system.l2cache.demand_mshr_miss_latency::total     25940000                       # number of demand (read+write) MSHR miss cycles
system.l2cache.overall_mshr_miss_latency::.cpu.inst     18237000                       # number of overall MSHR miss cycles
system.l2cache.overall_mshr_miss_latency::.cpu.data      7703000                       # number of overall MSHR miss cycles
system.l2cache.overall_mshr_miss_latency::total     25940000                       # number of overall MSHR miss cycles
system.l2cache.demand_mshr_miss_rate::.cpu.inst     0.991736                       # mshr miss rate for demand accesses
system.l2cache.demand_mshr_miss_rate::.cpu.data            1                       # mshr miss rate for demand accesses
system.l2cache.demand_mshr_miss_rate::total     0.994065                       # mshr miss rate for demand accesses
system.l2cache.overall_mshr_miss_rate::.cpu.inst     0.991736                       # mshr miss rate for overall accesses
system.l2cache.overall_mshr_miss_rate::.cpu.data            1                       # mshr miss rate for overall accesses
system.l2cache.overall_mshr_miss_rate::total     0.994065                       # mshr miss rate for overall accesses
system.l2cache.demand_avg_mshr_miss_latency::.cpu.inst 75987.500000                       # average overall mshr miss latency
system.l2cache.demand_avg_mshr_miss_latency::.cpu.data 81084.210526                       # average overall mshr miss latency
system.l2cache.demand_avg_mshr_miss_latency::total 77432.835821                       # average overall mshr miss latency
system.l2cache.overall_avg_mshr_miss_latency::.cpu.inst 75987.500000                       # average overall mshr miss latency
system.l2cache.overall_avg_mshr_miss_latency::.cpu.data 81084.210526                       # average overall mshr miss latency
system.l2cache.overall_avg_mshr_miss_latency::total 77432.835821                       # average overall mshr miss latency
system.l2cache.replacements                         0                       # number of replacements
system.l2cache.ReadExReq_misses::.cpu.data           47                       # number of ReadExReq misses
system.l2cache.ReadExReq_misses::total             47                       # number of ReadExReq misses
system.l2cache.ReadExReq_miss_latency::.cpu.data      4779000                       # number of ReadExReq miss cycles
system.l2cache.ReadExReq_miss_latency::total      4779000                       # number of ReadExReq miss cycles
system.l2cache.ReadExReq_accesses::.cpu.data           47                       # number of ReadExReq accesses(hits+misses)
system.l2cache.ReadExReq_accesses::total           47                       # number of ReadExReq accesses(hits+misses)
system.l2cache.ReadExReq_miss_rate::.cpu.data            1                       # miss rate for ReadExReq accesses
system.l2cache.ReadExReq_miss_rate::total            1                       # miss rate for ReadExReq accesses
system.l2cache.ReadExReq_avg_miss_latency::.cpu.data 101680.851064                       # average ReadExReq miss latency
system.l2cache.ReadExReq_avg_miss_latency::total 101680.851064                       # average ReadExReq miss latency
system.l2cache.ReadExReq_mshr_misses::.cpu.data           47                       # number of ReadExReq MSHR misses
system.l2cache.ReadExReq_mshr_misses::total           47                       # number of ReadExReq MSHR misses
system.l2cache.ReadExReq_mshr_miss_latency::.cpu.data      3839000                       # number of ReadExReq MSHR miss cycles
system.l2cache.ReadExReq_mshr_miss_latency::total      3839000                       # number of ReadExReq MSHR miss cycles
system.l2cache.ReadExReq_mshr_miss_rate::.cpu.data            1                       # mshr miss rate for ReadExReq accesses
system.l2cache.ReadExReq_mshr_miss_rate::total            1                       # mshr miss rate for ReadExReq accesses
system.l2cache.ReadExReq_avg_mshr_miss_latency::.cpu.data 81680.851064                       # average ReadExReq mshr miss latency
system.l2cache.ReadExReq_avg_mshr_miss_latency::total 81680.851064                       # average ReadExReq mshr miss latency
system.l2cache.ReadSharedReq_hits::.cpu.inst            2                       # number of ReadSharedReq hits
system.l2cache.ReadSharedReq_hits::total            2                       # number of ReadSharedReq hits
system.l2cache.ReadSharedReq_misses::.cpu.inst          240                       # number of ReadSharedReq misses
system.l2cache.ReadSharedReq_misses::.cpu.data           48                       # number of ReadSharedReq misses
system.l2cache.ReadSharedReq_misses::total          288                       # number of ReadSharedReq misses
system.l2cache.ReadSharedReq_miss_latency::.cpu.inst     23037000                       # number of ReadSharedReq miss cycles
system.l2cache.ReadSharedReq_miss_latency::.cpu.data      4824000                       # number of ReadSharedReq miss cycles
system.l2cache.ReadSharedReq_miss_latency::total     27861000                       # number of ReadSharedReq miss cycles
system.l2cache.ReadSharedReq_accesses::.cpu.inst          242                       # number of ReadSharedReq accesses(hits+misses)
system.l2cache.ReadSharedReq_accesses::.cpu.data           48                       # number of ReadSharedReq accesses(hits+misses)
system.l2cache.ReadSharedReq_accesses::total          290                       # number of ReadSharedReq accesses(hits+misses)
system.l2cache.ReadSharedReq_miss_rate::.cpu.inst     0.991736                       # miss rate for ReadSharedReq accesses
system.l2cache.ReadSharedReq_miss_rate::.cpu.data            1                       # miss rate for ReadSharedReq accesses
system.l2cache.ReadSharedReq_miss_rate::total     0.993103                       # miss rate for ReadSharedReq accesses
system.l2cache.ReadSharedReq_avg_miss_latency::.cpu.inst 95987.500000                       # average ReadSharedReq miss latency
system.l2cache.ReadSharedReq_avg_miss_latency::.cpu.data       100500                       # average ReadSharedReq miss latency
system.l2cache.ReadSharedReq_avg_miss_latency::total 96739.583333                       # average ReadSharedReq miss latency
system.l2cache.ReadSharedReq_mshr_misses::.cpu.inst          240                       # number of ReadSharedReq MSHR misses
system.l2cache.ReadSharedReq_mshr_misses::.cpu.data           48                       # number of ReadSharedReq MSHR misses
system.l2cache.ReadSharedReq_mshr_misses::total          288                       # number of ReadSharedReq MSHR misses
system.l2cache.ReadSharedReq_mshr_miss_latency::.cpu.inst     18237000                       # number of ReadSharedReq MSHR miss cycles
system.l2cache.ReadSharedReq_mshr_miss_latency::.cpu.data      3864000                       # number of ReadSharedReq MSHR miss cycles
system.l2cache.ReadSharedReq_mshr_miss_latency::total     22101000                       # number of ReadSharedReq MSHR miss cycles
system.l2cache.ReadSharedReq_mshr_miss_rate::.cpu.inst     0.991736                       # mshr miss rate for ReadSharedReq accesses
system.l2cache.ReadSharedReq_mshr_miss_rate::.cpu.data            1                       # mshr miss rate for ReadSharedReq accesses
system.l2cache.ReadSharedReq_mshr_miss_rate::total     0.993103                       # mshr miss rate for ReadSharedReq accesses
system.l2cache.ReadSharedReq_avg_mshr_miss_latency::.cpu.inst 75987.500000                       # average ReadSharedReq mshr miss latency
system.l2cache.ReadSharedReq_avg_mshr_miss_latency::.cpu.data        80500                       # average ReadSharedReq mshr miss latency
system.l2cache.ReadSharedReq_avg_mshr_miss_latency::total 76739.583333                       # average ReadSharedReq mshr miss latency
system.l2cache.power_state.pwrStateResidencyTicks::UNDEFINED     52889000                       # Cumulative time (in ticks) in various power states
system.l2cache.tags.tagsinuse              175.419069                       # Cycle average of tags in use
system.l2cache.tags.total_refs                    403                       # Total number of references to valid blocks.
system.l2cache.tags.sampled_refs                  335                       # Sample count of references to valid blocks.
system.l2cache.tags.avg_refs                 1.202985                       # Average number of references to valid blocks.
system.l2cache.tags.warmup_cycle                86000                       # Cycle when the warmup percentage was hit.
system.l2cache.tags.occ_blocks::.cpu.inst   115.056366                       # Average occupied blocks per requestor
system.l2cache.tags.occ_blocks::.cpu.data    60.362704                       # Average occupied blocks per requestor
system.l2cache.tags.occ_percent::.cpu.inst     0.014045                       # Average percentage of cache occupancy
system.l2cache.tags.occ_percent::.cpu.data     0.007368                       # Average percentage of cache occupancy
system.l2cache.tags.occ_percent::total       0.021413                       # Average percentage of cache occupancy
system.l2cache.tags.occ_task_id_blocks::1024          335                       # Occupied blocks per task id
system.l2cache.tags.age_task_id_blocks_1024::0           57                       # Occupied blocks per task id
system.l2cache.tags.age_task_id_blocks_1024::1          278                       # Occupied blocks per task id
system.l2cache.tags.occ_task_id_percent::1024     0.040894                       # Percentage of cache occupancy per task id
system.l2cache.tags.tag_accesses                 3559                       # Number of tag accesses
system.l2cache.tags.data_accesses                3559                       # Number of data accesses
system.l2cache.tags.power_state.pwrStateResidencyTicks::UNDEFINED     52889000                       # Cumulative time (in ticks) in various power states
system.mem_ctrl.avgPriority_.cpu.inst::samples       240.00                       # Average QoS priority value for accepted requests
system.mem_ctrl.avgPriority_.cpu.data::samples        95.00                       # Average QoS priority value for accepted requests
system.mem_ctrl.priorityMinLatency       0.000000018750                       # per QoS priority minimum request to response latency (s)
system.mem_ctrl.priorityMaxLatency       0.000000571000                       # per QoS priority maximum request to response latency (s)
system.mem_ctrl.numReadWriteTurnArounds             0                       # Number of turnarounds from READ to WRITE
system.mem_ctrl.numWriteReadTurnArounds             0                       # Number of turnarounds from WRITE to READ
system.mem_ctrl.numStayReadState                  682                       # Number of times bus staying in READ state
system.mem_ctrl.numStayWriteState                   0                       # Number of times bus staying in WRITE state
system.mem_ctrl.readReqs                          335                       # Number of read requests accepted
system.mem_ctrl.writeReqs                           0                       # Number of write requests accepted
system.mem_ctrl.readBursts                        335                       # Number of controller read bursts, including those serviced by the write queue
system.mem_ctrl.writeBursts                         0                       # Number of controller write bursts, including those merged in the write queue
system.mem_ctrl.servicedByWrQ                       0                       # Number of controller read bursts serviced by the write queue
system.mem_ctrl.mergedWrBursts                      0                       # Number of controller write bursts merged with an existing one
system.mem_ctrl.neitherReadNorWriteReqs             0                       # Number of requests that are neither read nor write
system.mem_ctrl.avgRdQLen                        1.00                       # Average read queue length when enqueuing
system.mem_ctrl.avgWrQLen                        0.00                       # Average write queue length when enqueuing
system.mem_ctrl.numRdRetry                          0                       # Number of times read queue was full causing retry
system.mem_ctrl.numWrRetry                          0                       # Number of times write queue was full causing retry
system.mem_ctrl.readPktSize::0                      0                       # Read request sizes (log2)
system.mem_ctrl.readPktSize::1                      0                       # Read request sizes (log2)
system.mem_ctrl.readPktSize::2                      0                       # Read request sizes (log2)
system.mem_ctrl.readPktSize::3                      0                       # Read request sizes (log2)
system.mem_ctrl.readPktSize::4                      0                       # Read request sizes (log2)
system.mem_ctrl.readPktSize::5                      0                       # Read request sizes (log2)
system.mem_ctrl.readPktSize::6                    335                       # Read request sizes (log2)
system.mem_ctrl.writePktSize::0                     0                       # Write request sizes (log2)
system.mem_ctrl.writePktSize::1                     0                       # Write request sizes (log2)
system.mem_ctrl.writePktSize::2                     0                       # Write request sizes (log2)
system.mem_ctrl.writePktSize::3                     0                       # Write request sizes (log2)
system.mem_ctrl.writePktSize::4                     0                       # Write request sizes (log2)
system.mem_ctrl.writePktSize::5                     0                       # Write request sizes (log2)
system.mem_ctrl.writePktSize::6                     0                       # Write request sizes (log2)
system.mem_ctrl.rdQLenPdf::0                      335                       # What read queue length does an incoming req see
system.mem_ctrl.rdQLenPdf::1                        0                       # What read queue length does an incoming req see
system.mem_ctrl.rdQLenPdf::2                        0                       # What read queue length does an incoming req see
system.mem_ctrl.rdQLenPdf::3                        0                       # What read queue length does an incoming req see
system.mem_ctrl.rdQLenPdf::4                        0                       # What read queue length does an incoming req see
system.mem_ctrl.rdQLenPdf::5                        0                       # What read queue length does an incoming req see
system.mem_ctrl.rdQLenPdf::6                        0                       # What read queue length does an incoming req see
system.mem_ctrl.rdQLenPdf::7                        0                       # What read queue length does an incoming req see
system.mem_ctrl.rdQLenPdf::8                        0                       # What read queue length does an incoming req see
system.mem_ctrl.rdQLenPdf::9                        0                       # What read queue length does an incoming req see
system.mem_ctrl.rdQLenPdf::10                       0                       # What read queue length does an incoming req see
system.mem_ctrl.rdQLenPdf::11                       0                       # What read queue length does an incoming req see
system.mem_ctrl.rdQLenPdf::12                       0                       # What read queue length does an incoming req see
system.mem_ctrl.rdQLenPdf::13                       0                       # What read queue length does an incoming req see
system.mem_ctrl.rdQLenPdf::14                       0                       # What read queue length does an incoming req see
system.mem_ctrl.rdQLenPdf::15                       0                       # What read queue length does an incoming req see
system.mem_ctrl.rdQLenPdf::16                       0                       # What read queue length does an incoming req see
system.mem_ctrl.rdQLenPdf::17                       0                       # What read queue length does an incoming req see
system.mem_ctrl.rdQLenPdf::18                       0                       # What read queue length does an incoming req see
system.mem_ctrl.rdQLenPdf::19                       0                       # What read queue length does an incoming req see
system.mem_ctrl.rdQLenPdf::20                       0                       # What read queue length does an incoming req see
system.mem_ctrl.rdQLenPdf::21                       0                       # What read queue length does an incoming req see
system.mem_ctrl.rdQLenPdf::22                       0                       # What read queue length does an incoming req see
system.mem_ctrl.rdQLenPdf::23                       0                       # What read queue length does an incoming req see
system.mem_ctrl.rdQLenPdf::24                       0                       # What read queue length does an incoming req see
system.mem_ctrl.rdQLenPdf::25                       0                       # What read queue length does an incoming req see
system.mem_ctrl.rdQLenPdf::26                       0                       # What read queue length does an incoming req see
system.mem_ctrl.rdQLenPdf::27                       0                       # What read queue length does an incoming req see
system.mem_ctrl.rdQLenPdf::28                       0                       # What read queue length does an incoming req see
system.mem_ctrl.rdQLenPdf::29                       0                       # What read queue length does an incoming req see
system.mem_ctrl.rdQLenPdf::30                       0                       # What read queue length does an incoming req see
system.mem_ctrl.rdQLenPdf::31                       0                       # What read queue length does an incoming req see
system.mem_ctrl.wrQLenPdf::0                        0                       # What write queue length does an incoming req see
system.mem_ctrl.wrQLenPdf::1                        0                       # What write queue length does an incoming req see
system.mem_ctrl.wrQLenPdf::2                        0                       # What write queue length does an incoming req see
system.mem_ctrl.wrQLenPdf::3                        0                       # What write queue length does an incoming req see
system.mem_ctrl.wrQLenPdf::4                        0                       # What write queue length does an incoming req see
system.mem_ctrl.wrQLenPdf::5                        0                       # What write queue length does an incoming req see
system.mem_ctrl.wrQLenPdf::6                        0                       # What write queue length does an incoming req see
system.mem_ctrl.wrQLenPdf::7                        0                       # What write queue length does an incoming req see
system.mem_ctrl.wrQLenPdf::8                        0                       # What write queue length does an incoming req see
system.mem_ctrl.wrQLenPdf::9                        0                       # What write queue length does an incoming req see
system.mem_ctrl.wrQLenPdf::10                       0                       # What write queue length does an incoming req see
system.mem_ctrl.wrQLenPdf::11                       0                       # What write queue length does an incoming req see
system.mem_ctrl.wrQLenPdf::12                       0                       # What write queue length does an incoming req see
system.mem_ctrl.wrQLenPdf::13                       0                       # What write queue length does an incoming req see
system.mem_ctrl.wrQLenPdf::14                       0                       # What write queue length does an incoming req see
system.mem_ctrl.wrQLenPdf::15                       0                       # What write queue length does an incoming req see
system.mem_ctrl.wrQLenPdf::16                       0                       # What write queue length does an incoming req see
system.mem_ctrl.wrQLenPdf::17                       0                       # What write queue length does an incoming req see
system.mem_ctrl.wrQLenPdf::18                       0                       # What write queue length does an incoming req see
system.mem_ctrl.wrQLenPdf::19                       0                       # What write queue length does an incoming req see
system.mem_ctrl.wrQLenPdf::20                       0                       # What write queue length does an incoming req see
system.mem_ctrl.wrQLenPdf::21                       0                       # What write queue length does an incoming req see
system.mem_ctrl.wrQLenPdf::22                       0                       # What write queue length does an incoming req see
system.mem_ctrl.wrQLenPdf::23                       0                       # What write queue length does an incoming req see
system.mem_ctrl.wrQLenPdf::24                       0                       # What write queue length does an incoming req see
system.mem_ctrl.wrQLenPdf::25                       0                       # What write queue length does an incoming req see
system.mem_ctrl.wrQLenPdf::26                       0                       # What write queue length does an incoming req see
system.mem_ctrl.wrQLenPdf::27                       0                       # What write queue length does an incoming req see
system.mem_ctrl.wrQLenPdf::28                       0                       # What write queue length does an incoming req see
system.mem_ctrl.wrQLenPdf::29                       0                       # What write queue length does an incoming req see
system.mem_ctrl.wrQLenPdf::30                       0                       # What write queue length does an incoming req see
system.mem_ctrl.wrQLenPdf::31                       0                       # What write queue length does an incoming req see
system.mem_ctrl.wrQLenPdf::32                       0                       # What write queue length does an incoming req see
system.mem_ctrl.wrQLenPdf::33                       0                       # What write queue length does an incoming req see
system.mem_ctrl.wrQLenPdf::34                       0                       # What write queue length does an incoming req see
system.mem_ctrl.wrQLenPdf::35                       0                       # What write queue length does an incoming req see
system.mem_ctrl.wrQLenPdf::36                       0                       # What write queue length does an incoming req see
system.mem_ctrl.wrQLenPdf::37                       0                       # What write queue length does an incoming req see
system.mem_ctrl.wrQLenPdf::38                       0                       # What write queue length does an incoming req see
system.mem_ctrl.wrQLenPdf::39                       0                       # What write queue length does an incoming req see
system.mem_ctrl.wrQLenPdf::40                       0                       # What write queue length does an incoming req see
system.mem_ctrl.wrQLenPdf::41                       0                       # What write queue length does an incoming req see
system.mem_ctrl.wrQLenPdf::42                       0                       # What write queue length does an incoming req see
system.mem_ctrl.wrQLenPdf::43                       0                       # What write queue length does an incoming req see
system.mem_ctrl.wrQLenPdf::44                       0                       # What write queue length does an incoming req see
system.mem_ctrl.wrQLenPdf::45                       0                       # What write queue length does an incoming req see
system.mem_ctrl.wrQLenPdf::46                       0                       # What write queue length does an incoming req see
system.mem_ctrl.wrQLenPdf::47                       0                       # What write queue length does an incoming req see
system.mem_ctrl.wrQLenPdf::48                       0                       # What write queue length does an incoming req see
system.mem_ctrl.wrQLenPdf::49                       0                       # What write queue length does an incoming req see
system.mem_ctrl.wrQLenPdf::50                       0                       # What write queue length does an incoming req see
system.mem_ctrl.wrQLenPdf::51                       0                       # What write queue length does an incoming req see
system.mem_ctrl.wrQLenPdf::52                       0                       # What write queue length does an incoming req see
system.mem_ctrl.wrQLenPdf::53                       0                       # What write queue length does an incoming req see
system.mem_ctrl.wrQLenPdf::54                       0                       # What write queue length does an incoming req see
system.mem_ctrl.wrQLenPdf::55                       0                       # What write queue length does an incoming req see
system.mem_ctrl.wrQLenPdf::56                       0                       # What write queue length does an incoming req see
system.mem_ctrl.wrQLenPdf::57                       0                       # What write queue length does an incoming req see
system.mem_ctrl.wrQLenPdf::58                       0                       # What write queue length does an incoming req see
system.mem_ctrl.wrQLenPdf::59                       0                       # What write queue length does an incoming req see
system.mem_ctrl.wrQLenPdf::60                       0                       # What write queue length does an incoming req see
system.mem_ctrl.wrQLenPdf::61                       0                       # What write queue length does an incoming req see
system.mem_ctrl.wrQLenPdf::62                       0                       # What write queue length does an incoming req see
system.mem_ctrl.wrQLenPdf::63                       0                       # What write queue length does an incoming req see
system.mem_ctrl.bytesReadWrQ                        0                       # Total number of bytes read from write queue
system.mem_ctrl.bytesReadSys                    21440                       # Total read bytes from the system interface side
system.mem_ctrl.bytesWrittenSys                     0                       # Total written bytes from the system interface side
system.mem_ctrl.avgRdBWSys                     405.38                       # Average system read bandwidth in MiByte/s
system.mem_ctrl.avgWrBWSys                       0.00                       # Average system write bandwidth in MiByte/s
system.mem_ctrl.totGap                       52752000                       # Total gap between requests
system.mem_ctrl.avgGap                      157468.66                       # Average gap between requests
system.mem_ctrl.requestorReadBytes::.cpu.inst        15360                       # Per-requestor bytes read from memory
system.mem_ctrl.requestorReadBytes::.cpu.data         6080                       # Per-requestor bytes read from memory
system.mem_ctrl.requestorReadRate::.cpu.inst 290419557.942105174065                       # Per-requestor bytes read from memory rate (Bytes/sec)
system.mem_ctrl.requestorReadRate::.cpu.data 114957741.685416623950                       # Per-requestor bytes read from memory rate (Bytes/sec)
system.mem_ctrl.requestorReadAccesses::.cpu.inst          240                       # Per-requestor read serviced memory accesses
system.mem_ctrl.requestorReadAccesses::.cpu.data           95                       # Per-requestor read serviced memory accesses
system.mem_ctrl.requestorReadTotalLat::.cpu.inst      5920250                       # Per-requestor read total memory access latency
system.mem_ctrl.requestorReadTotalLat::.cpu.data      2820500                       # Per-requestor read total memory access latency
system.mem_ctrl.requestorReadAvgLat::.cpu.inst     24667.71                       # Per-requestor read average memory access latency
system.mem_ctrl.requestorReadAvgLat::.cpu.data     29689.47                       # Per-requestor read average memory access latency
system.mem_ctrl.dram.bytes_read::.cpu.inst        15360                       # Number of bytes read from this memory
system.mem_ctrl.dram.bytes_read::.cpu.data         6080                       # Number of bytes read from this memory
system.mem_ctrl.dram.bytes_read::total          21440                       # Number of bytes read from this memory
system.mem_ctrl.dram.bytes_inst_read::.cpu.inst        15360                       # Number of instructions bytes read from this memory
system.mem_ctrl.dram.bytes_inst_read::total        15360                       # Number of instructions bytes read from this memory
system.mem_ctrl.dram.num_reads::.cpu.inst          240                       # Number of read requests responded to by this memory
system.mem_ctrl.dram.num_reads::.cpu.data           95                       # Number of read requests responded to by this memory
system.mem_ctrl.dram.num_reads::total             335                       # Number of read requests responded to by this memory
system.mem_ctrl.dram.bw_read::.cpu.inst     290419558                       # Total read bandwidth from this memory (bytes/s)
system.mem_ctrl.dram.bw_read::.cpu.data     114957742                       # Total read bandwidth from this memory (bytes/s)
system.mem_ctrl.dram.bw_read::total         405377300                       # Total read bandwidth from this memory (bytes/s)
system.mem_ctrl.dram.bw_inst_read::.cpu.inst    290419558                       # Instruction read bandwidth from this memory (bytes/s)
system.mem_ctrl.dram.bw_inst_read::total    290419558                       # Instruction read bandwidth from this memory (bytes/s)
system.mem_ctrl.dram.bw_total::.cpu.inst    290419558                       # Total bandwidth to/from this memory (bytes/s)
system.mem_ctrl.dram.bw_total::.cpu.data    114957742                       # Total bandwidth to/from this memory (bytes/s)
system.mem_ctrl.dram.bw_total::total        405377300                       # Total bandwidth to/from this memory (bytes/s)
system.mem_ctrl.dram.readBursts                   335                       # Number of DRAM read bursts
system.mem_ctrl.dram.writeBursts                    0                       # Number of DRAM write bursts
system.mem_ctrl.dram.perBankRdBursts::0            62                       # Per bank write bursts
system.mem_ctrl.dram.perBankRdBursts::1            25                       # Per bank write bursts
system.mem_ctrl.dram.perBankRdBursts::2            54                       # Per bank write bursts
system.mem_ctrl.dram.perBankRdBursts::3            77                       # Per bank write bursts
system.mem_ctrl.dram.perBankRdBursts::4            38                       # Per bank write bursts
system.mem_ctrl.dram.perBankRdBursts::5             9                       # Per bank write bursts
system.mem_ctrl.dram.perBankRdBursts::6             8                       # Per bank write bursts
system.mem_ctrl.dram.perBankRdBursts::7            17                       # Per bank write bursts
system.mem_ctrl.dram.perBankRdBursts::8            26                       # Per bank write bursts
system.mem_ctrl.dram.perBankRdBursts::9             7                       # Per bank write bursts
system.mem_ctrl.dram.perBankRdBursts::10            9                       # Per bank write bursts
system.mem_ctrl.dram.perBankRdBursts::11            0                       # Per bank write bursts
system.mem_ctrl.dram.perBankRdBursts::12            0                       # Per bank write bursts
system.mem_ctrl.dram.perBankRdBursts::13            1                       # Per bank write bursts
system.mem_ctrl.dram.perBankRdBursts::14            0                       # Per bank write bursts
system.mem_ctrl.dram.perBankRdBursts::15            2                       # Per bank write bursts
system.mem_ctrl.dram.perBankWrBursts::0             0                       # Per bank write bursts
system.mem_ctrl.dram.perBankWrBursts::1             0                       # Per bank write bursts
system.mem_ctrl.dram.perBankWrBursts::2             0                       # Per bank write bursts
system.mem_ctrl.dram.perBankWrBursts::3             0                       # Per bank write bursts
system.mem_ctrl.dram.perBankWrBursts::4             0                       # Per bank write bursts
system.mem_ctrl.dram.perBankWrBursts::5             0                       # Per bank write bursts
system.mem_ctrl.dram.perBankWrBursts::6             0                       # Per bank write bursts
system.mem_ctrl.dram.perBankWrBursts::7             0                       # Per bank write bursts
system.mem_ctrl.dram.perBankWrBursts::8             0                       # Per bank write bursts
system.mem_ctrl.dram.perBankWrBursts::9             0                       # Per bank write bursts
system.mem_ctrl.dram.perBankWrBursts::10            0                       # Per bank write bursts
system.mem_ctrl.dram.perBankWrBursts::11            0                       # Per bank write bursts
system.mem_ctrl.dram.perBankWrBursts::12            0                       # Per bank write bursts
system.mem_ctrl.dram.perBankWrBursts::13            0                       # Per bank write bursts
system.mem_ctrl.dram.perBankWrBursts::14            0                       # Per bank write bursts
system.mem_ctrl.dram.perBankWrBursts::15            0                       # Per bank write bursts
system.mem_ctrl.dram.totQLat                  2459500                       # Total ticks spent queuing
system.mem_ctrl.dram.totBusLat                1675000                       # Total ticks spent in databus transfers
system.mem_ctrl.dram.totMemAccLat             8740750                       # Total ticks spent from burst creation until serviced by the DRAM
system.mem_ctrl.dram.avgQLat                  7341.79                       # Average queueing delay per DRAM burst
system.mem_ctrl.dram.avgBusLat                5000.00                       # Average bus latency per DRAM burst
system.mem_ctrl.dram.avgMemAccLat            26091.79                       # Average memory access latency per DRAM burst
system.mem_ctrl.dram.readRowHits                  247                       # Number of row buffer hits during reads
system.mem_ctrl.dram.writeRowHits                   0                       # Number of row buffer hits during writes
system.mem_ctrl.dram.readRowHitRate             73.73                       # Row buffer hit rate for reads
system.mem_ctrl.dram.writeRowHitRate              nan                       # Row buffer hit rate for writes
system.mem_ctrl.dram.bytesPerActivate::samples           82                       # Bytes accessed per row activation
system.mem_ctrl.dram.bytesPerActivate::mean   244.292683                       # Bytes accessed per row activation
system.mem_ctrl.dram.bytesPerActivate::gmean   159.487391                       # Bytes accessed per row activation
system.mem_ctrl.dram.bytesPerActivate::stdev   264.190564                       # Bytes accessed per row activation
system.mem_ctrl.dram.bytesPerActivate::0-127           28     34.15%     34.15% # Bytes accessed per row activation
system.mem_ctrl.dram.bytesPerActivate::128-255           26     31.71%     65.85% # Bytes accessed per row activation
system.mem_ctrl.dram.bytesPerActivate::256-383           11     13.41%     79.27% # Bytes accessed per row activation
system.mem_ctrl.dram.bytesPerActivate::384-511            8      9.76%     89.02% # Bytes accessed per row activation
system.mem_ctrl.dram.bytesPerActivate::640-767            1      1.22%     90.24% # Bytes accessed per row activation
system.mem_ctrl.dram.bytesPerActivate::768-895            2      2.44%     92.68% # Bytes accessed per row activation
system.mem_ctrl.dram.bytesPerActivate::896-1023            2      2.44%     95.12% # Bytes accessed per row activation
system.mem_ctrl.dram.bytesPerActivate::1024-1151            4      4.88%    100.00% # Bytes accessed per row activation
system.mem_ctrl.dram.bytesPerActivate::total           82                       # Bytes accessed per row activation
system.mem_ctrl.dram.bytesRead                  21440                       # Total number of bytes read from DRAM
system.mem_ctrl.dram.bytesWritten                   0                       # Total number of bytes written to DRAM
system.mem_ctrl.dram.avgRdBW               405.377300                       # Average DRAM read bandwidth in MiBytes/s
system.mem_ctrl.dram.avgWrBW                        0                       # Average DRAM write bandwidth in MiBytes/s
system.mem_ctrl.dram.peakBW                  12800.00                       # Theoretical peak bandwidth in MiByte/s
system.mem_ctrl.dram.busUtil                     3.17                       # Data bus utilization in percentage
system.mem_ctrl.dram.busUtilRead                 3.17                       # Data bus utilization in percentage for reads
system.mem_ctrl.dram.busUtilWrite                0.00                       # Data bus utilization in percentage for writes
system.mem_ctrl.dram.pageHitRate                73.73                       # Row buffer hit rate, read and write combined
system.mem_ctrl.dram.power_state.pwrStateResidencyTicks::UNDEFINED     52889000                       # Cumulative time (in ticks) in various power states
system.mem_ctrl.dram.rank0.actEnergy           556920                       # Energy for activate commands per rank (pJ)
system.mem_ctrl.dram.rank0.preEnergy           280830                       # Energy for precharge commands per rank (pJ)
system.mem_ctrl.dram.rank0.readEnergy         2070600                       # Energy for read commands per rank (pJ)
system.mem_ctrl.dram.rank0.writeEnergy              0                       # Energy for write commands per rank (pJ)
system.mem_ctrl.dram.rank0.refreshEnergy 3687840.000000                       # Energy for refresh commands per rank (pJ)
system.mem_ctrl.dram.rank0.actBackEnergy     24026070                       # Energy for active background per rank (pJ)
system.mem_ctrl.dram.rank0.preBackEnergy        77280                       # Energy for precharge background per rank (pJ)
system.mem_ctrl.dram.rank0.actPowerDownEnergy            0                       # Energy for active power-down per rank (pJ)
system.mem_ctrl.dram.rank0.prePowerDownEnergy            0                       # Energy for precharge power-down per rank (pJ)
system.mem_ctrl.dram.rank0.selfRefreshEnergy            0                       # Energy for self refresh per rank (pJ)
system.mem_ctrl.dram.rank0.totalEnergy       30699540                       # Total energy per rank (pJ)
system.mem_ctrl.dram.rank0.averagePower    580.452268                       # Core power per rank (mW)
system.mem_ctrl.dram.rank0.totalIdleTime            0                       # Total Idle time Per DRAM Rank
system.mem_ctrl.dram.rank0.pwrStateTime::IDLE        34750                       # Time in different power states
system.mem_ctrl.dram.rank0.pwrStateTime::REF      1560000                       # Time in different power states
system.mem_ctrl.dram.rank0.pwrStateTime::SREF            0                       # Time in different power states
system.mem_ctrl.dram.rank0.pwrStateTime::PRE_PDN            0                       # Time in different power states
system.mem_ctrl.dram.rank0.pwrStateTime::ACT     51294250                       # Time in different power states
system.mem_ctrl.dram.rank0.pwrStateTime::ACT_PDN            0                       # Time in different power states
system.mem_ctrl.dram.rank1.actEnergy            71400                       # Energy for activate commands per rank (pJ)
system.mem_ctrl.dram.rank1.preEnergy            30360                       # Energy for precharge commands per rank (pJ)
system.mem_ctrl.dram.rank1.readEnergy          321300                       # Energy for read commands per rank (pJ)
system.mem_ctrl.dram.rank1.writeEnergy              0                       # Energy for write commands per rank (pJ)
system.mem_ctrl.dram.rank1.refreshEnergy 3687840.000000                       # Energy for refresh commands per rank (pJ)
system.mem_ctrl.dram.rank1.actBackEnergy     12197430                       # Energy for active background per rank (pJ)
system.mem_ctrl.dram.rank1.preBackEnergy     10038240                       # Energy for precharge background per rank (pJ)
system.mem_ctrl.dram.rank1.actPowerDownEnergy            0                       # Energy for active power-down per rank (pJ)
system.mem_ctrl.dram.rank1.prePowerDownEnergy            0                       # Energy for precharge power-down per rank (pJ)
system.mem_ctrl.dram.rank1.selfRefreshEnergy            0                       # Energy for self refresh per rank (pJ)
system.mem_ctrl.dram.rank1.totalEnergy       26346570                       # Total energy per rank (pJ)
system.mem_ctrl.dram.rank1.averagePower    498.148386                       # Core power per rank (mW)
system.mem_ctrl.dram.rank1.totalIdleTime            0                       # Total Idle time Per DRAM Rank
system.mem_ctrl.dram.rank1.pwrStateTime::IDLE     26000000                       # Time in different power states
system.mem_ctrl.dram.rank1.pwrStateTime::REF      1560000                       # Time in different power states
system.mem_ctrl.dram.rank1.pwrStateTime::SREF            0                       # Time in different power states
system.mem_ctrl.dram.rank1.pwrStateTime::PRE_PDN            0                       # Time in different power states
system.mem_ctrl.dram.rank1.pwrStateTime::ACT     25329000                       # Time in different power states
system.mem_ctrl.dram.rank1.pwrStateTime::ACT_PDN            0                       # Time in different power states
system.mem_ctrl.power_state.pwrStateResidencyTicks::UNDEFINED     52889000                       # Cumulative time (in ticks) in various power states
system.membus.trans_dist::ReadResp                288                       # Transaction distribution
system.membus.trans_dist::ReadExReq                47                       # Transaction distribution
system.membus.trans_dist::ReadExResp               47                       # Transaction distribution
system.membus.trans_dist::ReadSharedReq           288                       # Transaction distribution
system.membus.pkt_count_system.l2cache.mem_side_port::system.mem_ctrl.port          670                       # Packet count per connected requestor and responder (bytes)
system.membus.pkt_count_system.l2cache.mem_side_port::total          670                       # Packet count per connected requestor and responder (bytes)
system.membus.pkt_count::total                    670                       # Packet count per connected requestor and responder (bytes)
system.membus.pkt_size_system.l2cache.mem_side_port::system.mem_ctrl.port        21440                       # Cumulative packet size per connected requestor and responder (bytes)
system.membus.pkt_size_system.l2cache.mem_side_port::total        21440                       # Cumulative packet size per connected requestor and responder (bytes)
system.membus.pkt_size::total                   21440                       # Cumulative packet size per connected requestor and responder (bytes)
system.membus.snoops                                0                       # Total snoops (count)
system.membus.snoopTraffic                          0                       # Total snoop traffic (bytes)
system.membus.snoop_fanout::samples               335                       # Request fanout histogram
system.membus.snoop_fanout::mean                    0                       # Request fanout histogram
system.membus.snoop_fanout::stdev                   0                       # Request fanout histogram
system.membus.snoop_fanout::underflows              0      0.00%      0.00% # Request fanout histogram
system.membus.snoop_fanout::0                     335    100.00%    100.00% # Request fanout histogram
system.membus.snoop_fanout::1                       0      0.00%    100.00% # Request fanout histogram
system.membus.snoop_fanout::overflows               0      0.00%    100.00% # Request fanout histogram
system.membus.snoop_fanout::min_value               0                       # Request fanout histogram
system.membus.snoop_fanout::max_value               0                       # Request fanout histogram
system.membus.snoop_fanout::total                 335                       # Request fanout histogram
system.membus.power_state.pwrStateResidencyTicks::UNDEFINED     52889000                       # Cumulative time (in ticks) in various power states
system.membus.reqLayer2.occupancy              335000                       # Layer occupancy (ticks)
system.membus.reqLayer2.utilization               0.6                       # Layer utilization (%)
system.membus.respLayer0.occupancy            1789250                       # Layer occupancy (ticks)
system.membus.respLayer0.utilization              3.4                       # Layer utilization (%)

---------- End Simulation Statistics   ----------
