
---------- Begin Simulation Statistics ----------
final_tick                                 9156994000                       # Number of ticks from beginning of simulation (restored from checkpoints and never reset)
host_inst_rate                                 443596                       # Simulator instruction rate (inst/s)
host_mem_usage                                 717736                       # Number of bytes of host memory used
host_op_rate                                   781489                       # Simulator op (including micro ops) rate (op/s)
host_seconds                                     5.25                       # Real time elapsed on the host
host_tick_rate                             1745531253                       # Simulator tick rate (ticks/s)
sim_freq                                 1000000000000                       # Frequency of simulated ticks
sim_insts                                     2326963                       # Number of instructions simulated
sim_ops                                       4099626                       # Number of ops (including micro ops) simulated
sim_seconds                                  0.009157                       # Number of seconds simulated
sim_ticks                                  9156994000                       # Number of ticks simulated
system.cpu.Branches                            369070                       # Number of branches fetched
system.cpu.committedInsts                     2326963                       # Number of instructions committed
system.cpu.committedOps                       4099626                       # Number of ops (including micro ops) committed
system.cpu.idle_fraction                     0.000000                       # Percentage of idle cycles
system.cpu.not_idle_fraction                 1.000000                       # Percentage of non-idle cycles
system.cpu.numCycles                          9156994                       # number of cpu cycles simulated
system.cpu.numWorkItemsCompleted                    0                       # number of work items this cpu completed
system.cpu.numWorkItemsStarted                      0                       # number of work items this cpu started
system.cpu.num_busy_cycles               9156993.999000                       # Number of busy cycles
system.cpu.num_cc_register_reads              2309237                       # number of times the CC registers were read
system.cpu.num_cc_register_writes             1840677                       # number of times the CC registers were written
system.cpu.num_conditional_control_insts       322526                       # number of instructions that are conditional controls
system.cpu.num_fp_alu_accesses                  92029                       # Number of float alu accesses
system.cpu.num_fp_insts                         92029                       # number of float instructions
system.cpu.num_fp_register_reads               127654                       # number of times the floating registers were read
system.cpu.num_fp_register_writes               68032                       # number of times the floating registers were written
system.cpu.num_func_calls                       23798                       # number of times a function call or return occured
system.cpu.num_idle_cycles                   0.001000                       # Number of idle cycles
system.cpu.num_int_alu_accesses               4025528                       # Number of integer alu accesses
system.cpu.num_int_insts                      4025528                       # number of integer instructions
system.cpu.num_int_register_reads             8089439                       # number of times the integer registers were read
system.cpu.num_int_register_writes            3517937                       # number of times the integer registers were written
system.cpu.num_load_insts                      529201                       # Number of load instructions
system.cpu.num_mem_refs                        731515                       # number of memory refs
system.cpu.num_store_insts                     202314                       # Number of store instructions
system.cpu.num_vec_alu_accesses                     0                       # Number of vector alu accesses
system.cpu.num_vec_insts                            0                       # number of vector instructions
system.cpu.num_vec_register_reads                   0                       # number of times the vector registers were read
system.cpu.num_vec_register_writes                  0                       # number of times the vector registers were written
system.cpu.op_class::No_OpClass                 27046      0.66%      0.66% # Class of executed instruction
system.cpu.op_class::IntAlu                   3247351     79.20%     79.86% # Class of executed instruction
system.cpu.op_class::IntMult                       48      0.00%     79.87% # Class of executed instruction
system.cpu.op_class::IntDiv                     38408      0.94%     80.80% # Class of executed instruction
system.cpu.op_class::FloatAdd                    5832      0.14%     80.94% # Class of executed instruction
system.cpu.op_class::FloatCmp                       0      0.00%     80.94% # Class of executed instruction
system.cpu.op_class::FloatCvt                    1680      0.04%     80.99% # Class of executed instruction
system.cpu.op_class::FloatMult                      0      0.00%     80.99% # Class of executed instruction
system.cpu.op_class::FloatMultAcc                   0      0.00%     80.99% # Class of executed instruction
system.cpu.op_class::FloatDiv                       0      0.00%     80.99% # Class of executed instruction
system.cpu.op_class::FloatMisc                      0      0.00%     80.99% # Class of executed instruction
system.cpu.op_class::FloatSqrt                      0      0.00%     80.99% # Class of executed instruction
system.cpu.op_class::SimdAdd                     7114      0.17%     81.16% # Class of executed instruction
system.cpu.op_class::SimdAddAcc                     0      0.00%     81.16% # Class of executed instruction
system.cpu.op_class::SimdAlu                    12801      0.31%     81.47% # Class of executed instruction
system.cpu.op_class::SimdCmp                        6      0.00%     81.47% # Class of executed instruction
system.cpu.op_class::SimdCvt                    14642      0.36%     81.83% # Class of executed instruction
system.cpu.op_class::SimdMisc                   12645      0.31%     82.14% # Class of executed instruction
system.cpu.op_class::SimdMult                       0      0.00%     82.14% # Class of executed instruction
system.cpu.op_class::SimdMultAcc                    0      0.00%     82.14% # Class of executed instruction
system.cpu.op_class::SimdShift                    884      0.02%     82.16% # Class of executed instruction
system.cpu.op_class::SimdShiftAcc                   0      0.00%     82.16% # Class of executed instruction
system.cpu.op_class::SimdDiv                        0      0.00%     82.16% # Class of executed instruction
system.cpu.op_class::SimdSqrt                       0      0.00%     82.16% # Class of executed instruction
system.cpu.op_class::SimdFloatAdd                   0      0.00%     82.16% # Class of executed instruction
system.cpu.op_class::SimdFloatAlu                   0      0.00%     82.16% # Class of executed instruction
system.cpu.op_class::SimdFloatCmp                   0      0.00%     82.16% # Class of executed instruction
system.cpu.op_class::SimdFloatCvt                   0      0.00%     82.16% # Class of executed instruction
system.cpu.op_class::SimdFloatDiv                   0      0.00%     82.16% # Class of executed instruction
system.cpu.op_class::SimdFloatMisc                  0      0.00%     82.16% # Class of executed instruction
system.cpu.op_class::SimdFloatMult                  0      0.00%     82.16% # Class of executed instruction
system.cpu.op_class::SimdFloatMultAcc               0      0.00%     82.16% # Class of executed instruction
system.cpu.op_class::SimdFloatSqrt                  0      0.00%     82.16% # Class of executed instruction
system.cpu.op_class::SimdReduceAdd                  0      0.00%     82.16% # Class of executed instruction
system.cpu.op_class::SimdReduceAlu                  0      0.00%     82.16% # Class of executed instruction
system.cpu.op_class::SimdReduceCmp                  0      0.00%     82.16% # Class of executed instruction
system.cpu.op_class::SimdFloatReduceAdd             0      0.00%     82.16% # Class of executed instruction
system.cpu.op_class::SimdFloatReduceCmp             0      0.00%     82.16% # Class of executed instruction
system.cpu.op_class::SimdAes                        0      0.00%     82.16% # Class of executed instruction
system.cpu.op_class::SimdAesMix                     0      0.00%     82.16% # Class of executed instruction
system.cpu.op_class::SimdSha1Hash                   0      0.00%     82.16% # Class of executed instruction
system.cpu.op_class::SimdSha1Hash2                  0      0.00%     82.16% # Class of executed instruction
system.cpu.op_class::SimdSha256Hash                 0      0.00%     82.16% # Class of executed instruction
system.cpu.op_class::SimdSha256Hash2                0      0.00%     82.16% # Class of executed instruction
system.cpu.op_class::SimdShaSigma2                  0      0.00%     82.16% # Class of executed instruction
system.cpu.op_class::SimdShaSigma3                  0      0.00%     82.16% # Class of executed instruction
system.cpu.op_class::SimdPredAlu                    0      0.00%     82.16% # Class of executed instruction
system.cpu.op_class::MemRead                   510362     12.45%     94.61% # Class of executed instruction
system.cpu.op_class::MemWrite                  187529      4.57%     99.18% # Class of executed instruction
system.cpu.op_class::FloatMemRead               18839      0.46%     99.64% # Class of executed instruction
system.cpu.op_class::FloatMemWrite              14785      0.36%    100.00% # Class of executed instruction
system.cpu.op_class::IprAccess                      0      0.00%    100.00% # Class of executed instruction
system.cpu.op_class::InstPrefetch                   0      0.00%    100.00% # Class of executed instruction
system.cpu.op_class::total                    4099972                       # Class of executed instruction
system.cpu.workload.numSyscalls                    93                       # Number of system calls
system.l2bus.snoop_filter.hit_multi_requests            0                       # Number of requests hitting in the snoop filter with multiple (>1) holders of the requested data.
system.l2bus.snoop_filter.hit_multi_snoops            0                       # Number of snoops hitting in the snoop filter with multiple (>1) holders of the requested data.
system.l2bus.snoop_filter.hit_single_requests        16908                       # Number of requests hitting in the snoop filter with a single holder of the requested data.
system.l2bus.snoop_filter.hit_single_snoops          240                       # Number of snoops hitting in the snoop filter with a single holder of the requested data.
system.l2bus.snoop_filter.tot_requests          35096                       # Total number of requests made to the snoop filter.
system.l2bus.snoop_filter.tot_snoops              240                       # Total number of snoops made to the snoop filter.
system.membus.snoop_filter.hit_multi_requests            0                       # Number of requests hitting in the snoop filter with multiple (>1) holders of the requested data.
system.membus.snoop_filter.hit_multi_snoops            0                       # Number of snoops hitting in the snoop filter with multiple (>1) holders of the requested data.
system.membus.snoop_filter.hit_single_requests          271                       # Number of requests hitting in the snoop filter with a single holder of the requested data.
system.membus.snoop_filter.hit_single_snoops            0                       # Number of snoops hitting in the snoop filter with a single holder of the requested data.
system.membus.snoop_filter.tot_requests         12189                       # Total number of requests made to the snoop filter.
system.membus.snoop_filter.tot_snoops               0                       # Total number of snoops made to the snoop filter.
system.clk_domain.clock                          1000                       # Clock period in ticks
system.clk_domain.voltage_domain.voltage            1                       # Voltage in Volts
system.cpu.dcache.demand_hits::.cpu.data       715866                       # number of demand (read+write) hits
system.cpu.dcache.demand_hits::total           715866                       # number of demand (read+write) hits
system.cpu.dcache.overall_hits::.cpu.data       715866                       # number of overall hits
system.cpu.dcache.overall_hits::total          715866                       # number of overall hits
system.cpu.dcache.demand_misses::.cpu.data        15441                       # number of demand (read+write) misses
system.cpu.dcache.demand_misses::total          15441                       # number of demand (read+write) misses
system.cpu.dcache.overall_misses::.cpu.data        15441                       # number of overall misses
system.cpu.dcache.overall_misses::total         15441                       # number of overall misses
system.cpu.dcache.demand_miss_latency::.cpu.data   1218440000                       # number of demand (read+write) miss cycles
system.cpu.dcache.demand_miss_latency::total   1218440000                       # number of demand (read+write) miss cycles
system.cpu.dcache.overall_miss_latency::.cpu.data   1218440000                       # number of overall miss cycles
system.cpu.dcache.overall_miss_latency::total   1218440000                       # number of overall miss cycles
system.cpu.dcache.demand_accesses::.cpu.data       731307                       # number of demand (read+write) accesses
system.cpu.dcache.demand_accesses::total       731307                       # number of demand (read+write) accesses
system.cpu.dcache.overall_accesses::.cpu.data       731307                       # number of overall (read+write) accesses
system.cpu.dcache.overall_accesses::total       731307                       # number of overall (read+write) accesses
system.cpu.dcache.demand_miss_rate::.cpu.data     0.021114                       # miss rate for demand accesses
system.cpu.dcache.demand_miss_rate::total     0.021114                       # miss rate for demand accesses
system.cpu.dcache.overall_miss_rate::.cpu.data     0.021114                       # miss rate for overall accesses
system.cpu.dcache.overall_miss_rate::total     0.021114                       # miss rate for overall accesses
system.cpu.dcache.demand_avg_miss_latency::.cpu.data 78909.397060                       # average overall miss latency
system.cpu.dcache.demand_avg_miss_latency::total 78909.397060                       # average overall miss latency
system.cpu.dcache.overall_avg_miss_latency::.cpu.data 78909.397060                       # average overall miss latency
system.cpu.dcache.overall_avg_miss_latency::total 78909.397060                       # average overall miss latency
system.cpu.dcache.blocked_cycles::no_mshrs            0                       # number of cycles access was blocked
system.cpu.dcache.blocked_cycles::no_targets            0                       # number of cycles access was blocked
system.cpu.dcache.blocked::no_mshrs                 0                       # number of cycles access was blocked
system.cpu.dcache.blocked::no_targets               0                       # number of cycles access was blocked
system.cpu.dcache.avg_blocked_cycles::no_mshrs          nan                       # average number of cycles each access was blocked
system.cpu.dcache.avg_blocked_cycles::no_targets          nan                       # average number of cycles each access was blocked
system.cpu.dcache.writebacks::.writebacks         3110                       # number of writebacks
system.cpu.dcache.writebacks::total              3110                       # number of writebacks
system.cpu.dcache.demand_mshr_misses::.cpu.data        15441                       # number of demand (read+write) MSHR misses
system.cpu.dcache.demand_mshr_misses::total        15441                       # number of demand (read+write) MSHR misses
system.cpu.dcache.overall_mshr_misses::.cpu.data        15441                       # number of overall MSHR misses
system.cpu.dcache.overall_mshr_misses::total        15441                       # number of overall MSHR misses
system.cpu.dcache.demand_mshr_miss_latency::.cpu.data   1187558000                       # number of demand (read+write) MSHR miss cycles
system.cpu.dcache.demand_mshr_miss_latency::total   1187558000                       # number of demand (read+write) MSHR miss cycles
system.cpu.dcache.overall_mshr_miss_latency::.cpu.data   1187558000                       # number of overall MSHR miss cycles
system.cpu.dcache.overall_mshr_miss_latency::total   1187558000                       # number of overall MSHR miss cycles
system.cpu.dcache.demand_mshr_miss_rate::.cpu.data     0.021114                       # mshr miss rate for demand accesses
system.cpu.dcache.demand_mshr_miss_rate::total     0.021114                       # mshr miss rate for demand accesses
system.cpu.dcache.overall_mshr_miss_rate::.cpu.data     0.021114                       # mshr miss rate for overall accesses
system.cpu.dcache.overall_mshr_miss_rate::total     0.021114                       # mshr miss rate for overall accesses
system.cpu.dcache.demand_avg_mshr_miss_latency::.cpu.data 76909.397060                       # average overall mshr miss latency
system.cpu.dcache.demand_avg_mshr_miss_latency::total 76909.397060                       # average overall mshr miss latency
system.cpu.dcache.overall_avg_mshr_miss_latency::.cpu.data 76909.397060                       # average overall mshr miss latency
system.cpu.dcache.overall_avg_mshr_miss_latency::total 76909.397060                       # average overall mshr miss latency
system.cpu.dcache.replacements                  14417                       # number of replacements
system.cpu.dcache.ReadReq_hits::.cpu.data       515938                       # number of ReadReq hits
system.cpu.dcache.ReadReq_hits::total          515938                       # number of ReadReq hits
system.cpu.dcache.ReadReq_misses::.cpu.data        13072                       # number of ReadReq misses
system.cpu.dcache.ReadReq_misses::total         13072                       # number of ReadReq misses
system.cpu.dcache.ReadReq_miss_latency::.cpu.data   1028499000                       # number of ReadReq miss cycles
system.cpu.dcache.ReadReq_miss_latency::total   1028499000                       # number of ReadReq miss cycles
system.cpu.dcache.ReadReq_accesses::.cpu.data       529010                       # number of ReadReq accesses(hits+misses)
system.cpu.dcache.ReadReq_accesses::total       529010                       # number of ReadReq accesses(hits+misses)
system.cpu.dcache.ReadReq_miss_rate::.cpu.data     0.024710                       # miss rate for ReadReq accesses
system.cpu.dcache.ReadReq_miss_rate::total     0.024710                       # miss rate for ReadReq accesses
system.cpu.dcache.ReadReq_avg_miss_latency::.cpu.data 78679.544064                       # average ReadReq miss latency
system.cpu.dcache.ReadReq_avg_miss_latency::total 78679.544064                       # average ReadReq miss latency
system.cpu.dcache.ReadReq_mshr_misses::.cpu.data        13072                       # number of ReadReq MSHR misses
system.cpu.dcache.ReadReq_mshr_misses::total        13072                       # number of ReadReq MSHR misses
system.cpu.dcache.ReadReq_mshr_miss_latency::.cpu.data   1002355000                       # number of ReadReq MSHR miss cycles
system.cpu.dcache.ReadReq_mshr_miss_latency::total   1002355000                       # number of ReadReq MSHR miss cycles
system.cpu.dcache.ReadReq_mshr_miss_rate::.cpu.data     0.024710                       # mshr miss rate for ReadReq accesses
system.cpu.dcache.ReadReq_mshr_miss_rate::total     0.024710                       # mshr miss rate for ReadReq accesses
system.cpu.dcache.ReadReq_avg_mshr_miss_latency::.cpu.data 76679.544064                       # average ReadReq mshr miss latency
system.cpu.dcache.ReadReq_avg_mshr_miss_latency::total 76679.544064                       # average ReadReq mshr miss latency
system.cpu.dcache.WriteReq_hits::.cpu.data       199928                       # number of WriteReq hits
system.cpu.dcache.WriteReq_hits::total         199928                       # number of WriteReq hits
system.cpu.dcache.WriteReq_misses::.cpu.data         2369                       # number of WriteReq misses
system.cpu.dcache.WriteReq_misses::total         2369                       # number of WriteReq misses
system.cpu.dcache.WriteReq_miss_latency::.cpu.data    189941000                       # number of WriteReq miss cycles
system.cpu.dcache.WriteReq_miss_latency::total    189941000                       # number of WriteReq miss cycles
system.cpu.dcache.WriteReq_accesses::.cpu.data       202297                       # number of WriteReq accesses(hits+misses)
system.cpu.dcache.WriteReq_accesses::total       202297                       # number of WriteReq accesses(hits+misses)
system.cpu.dcache.WriteReq_miss_rate::.cpu.data     0.011711                       # miss rate for WriteReq accesses
system.cpu.dcache.WriteReq_miss_rate::total     0.011711                       # miss rate for WriteReq accesses
system.cpu.dcache.WriteReq_avg_miss_latency::.cpu.data 80177.712115                       # average WriteReq miss latency
system.cpu.dcache.WriteReq_avg_miss_latency::total 80177.712115                       # average WriteReq miss latency
system.cpu.dcache.WriteReq_mshr_misses::.cpu.data         2369                       # number of WriteReq MSHR misses
system.cpu.dcache.WriteReq_mshr_misses::total         2369                       # number of WriteReq MSHR misses
system.cpu.dcache.WriteReq_mshr_miss_latency::.cpu.data    185203000                       # number of WriteReq MSHR miss cycles
system.cpu.dcache.WriteReq_mshr_miss_latency::total    185203000                       # number of WriteReq MSHR miss cycles
system.cpu.dcache.WriteReq_mshr_miss_rate::.cpu.data     0.011711                       # mshr miss rate for WriteReq accesses
system.cpu.dcache.WriteReq_mshr_miss_rate::total     0.011711                       # mshr miss rate for WriteReq accesses
system.cpu.dcache.WriteReq_avg_mshr_miss_latency::.cpu.data 78177.712115                       # average WriteReq mshr miss latency
system.cpu.dcache.WriteReq_avg_mshr_miss_latency::total 78177.712115                       # average WriteReq mshr miss latency
system.cpu.dcache.power_state.pwrStateResidencyTicks::UNDEFINED   9156994000                       # Cumulative time (in ticks) in various power states
system.cpu.dcache.tags.tagsinuse           997.151239                       # Cycle average of tags in use
system.cpu.dcache.tags.total_refs              731307                       # Total number of references to valid blocks.
system.cpu.dcache.tags.sampled_refs             15441                       # Sample count of references to valid blocks.
system.cpu.dcache.tags.avg_refs             47.361376                       # Average number of references to valid blocks.
system.cpu.dcache.tags.warmup_cycle            218000                       # Cycle when the warmup percentage was hit.
system.cpu.dcache.tags.occ_blocks::.cpu.data   997.151239                       # Average occupied blocks per requestor
system.cpu.dcache.tags.occ_percent::.cpu.data     0.973781                       # Average percentage of cache occupancy
system.cpu.dcache.tags.occ_percent::total     0.973781                       # Average percentage of cache occupancy
system.cpu.dcache.tags.occ_task_id_blocks::1024         1024                       # Occupied blocks per task id
system.cpu.dcache.tags.age_task_id_blocks_1024::0           25                       # Occupied blocks per task id
system.cpu.dcache.tags.age_task_id_blocks_1024::1          131                       # Occupied blocks per task id
system.cpu.dcache.tags.age_task_id_blocks_1024::2          845                       # Occupied blocks per task id
system.cpu.dcache.tags.age_task_id_blocks_1024::3           23                       # Occupied blocks per task id
system.cpu.dcache.tags.occ_task_id_percent::1024            1                       # Percentage of cache occupancy per task id
system.cpu.dcache.tags.tag_accesses           1478055                       # Number of tag accesses
system.cpu.dcache.tags.data_accesses          1478055                       # Number of data accesses
system.cpu.dcache.tags.power_state.pwrStateResidencyTicks::UNDEFINED   9156994000                       # Cumulative time (in ticks) in various power states
system.cpu.dtb.rdAccesses                      529232                       # TLB accesses on read requests
system.cpu.dtb.wrAccesses                      202328                       # TLB accesses on write requests
system.cpu.dtb.rdMisses                          1501                       # TLB misses on read requests
system.cpu.dtb.wrMisses                           105                       # TLB misses on write requests
system.cpu.dtb.walker.power_state.pwrStateResidencyTicks::UNDEFINED   9156994000                       # Cumulative time (in ticks) in various power states
system.cpu.icache.demand_hits::.cpu.inst      3145637                       # number of demand (read+write) hits
system.cpu.icache.demand_hits::total          3145637                       # number of demand (read+write) hits
system.cpu.icache.overall_hits::.cpu.inst      3145637                       # number of overall hits
system.cpu.icache.overall_hits::total         3145637                       # number of overall hits
system.cpu.icache.demand_misses::.cpu.inst         2747                       # number of demand (read+write) misses
system.cpu.icache.demand_misses::total           2747                       # number of demand (read+write) misses
system.cpu.icache.overall_misses::.cpu.inst         2747                       # number of overall misses
system.cpu.icache.overall_misses::total          2747                       # number of overall misses
system.cpu.icache.demand_miss_latency::.cpu.inst    215608000                       # number of demand (read+write) miss cycles
system.cpu.icache.demand_miss_latency::total    215608000                       # number of demand (read+write) miss cycles
system.cpu.icache.overall_miss_latency::.cpu.inst    215608000                       # number of overall miss cycles
system.cpu.icache.overall_miss_latency::total    215608000                       # number of overall miss cycles
system.cpu.icache.demand_accesses::.cpu.inst      3148384                       # number of demand (read+write) accesses
system.cpu.icache.demand_accesses::total      3148384                       # number of demand (read+write) accesses
system.cpu.icache.overall_accesses::.cpu.inst      3148384                       # number of overall (read+write) accesses
system.cpu.icache.overall_accesses::total      3148384                       # number of overall (read+write) accesses
system.cpu.icache.demand_miss_rate::.cpu.inst     0.000873                       # miss rate for demand accesses
system.cpu.icache.demand_miss_rate::total     0.000873                       # miss rate for demand accesses
system.cpu.icache.overall_miss_rate::.cpu.inst     0.000873                       # miss rate for overall accesses
system.cpu.icache.overall_miss_rate::total     0.000873                       # miss rate for overall accesses
system.cpu.icache.demand_avg_miss_latency::.cpu.inst 78488.532945                       # average overall miss latency
system.cpu.icache.demand_avg_miss_latency::total 78488.532945                       # average overall miss latency
system.cpu.icache.overall_avg_miss_latency::.cpu.inst 78488.532945                       # average overall miss latency
system.cpu.icache.overall_avg_miss_latency::total 78488.532945                       # average overall miss latency
system.cpu.icache.blocked_cycles::no_mshrs            0                       # number of cycles access was blocked
system.cpu.icache.blocked_cycles::no_targets            0                       # number of cycles access was blocked
system.cpu.icache.blocked::no_mshrs                 0                       # number of cycles access was blocked
system.cpu.icache.blocked::no_targets               0                       # number of cycles access was blocked
system.cpu.icache.avg_blocked_cycles::no_mshrs          nan                       # average number of cycles each access was blocked
system.cpu.icache.avg_blocked_cycles::no_targets          nan                       # average number of cycles each access was blocked
system.cpu.icache.demand_mshr_misses::.cpu.inst         2747                       # number of demand (read+write) MSHR misses
system.cpu.icache.demand_mshr_misses::total         2747                       # number of demand (read+write) MSHR misses
system.cpu.icache.overall_mshr_misses::.cpu.inst         2747                       # number of overall MSHR misses
system.cpu.icache.overall_mshr_misses::total         2747                       # number of overall MSHR misses
system.cpu.icache.demand_mshr_miss_latency::.cpu.inst    210114000                       # number of demand (read+write) MSHR miss cycles
system.cpu.icache.demand_mshr_miss_latency::total    210114000                       # number of demand (read+write) MSHR miss cycles
system.cpu.icache.overall_mshr_miss_latency::.cpu.inst    210114000                       # number of overall MSHR miss cycles
system.cpu.icache.overall_mshr_miss_latency::total    210114000                       # number of overall MSHR miss cycles
system.cpu.icache.demand_mshr_miss_rate::.cpu.inst     0.000873                       # mshr miss rate for demand accesses
system.cpu.icache.demand_mshr_miss_rate::total     0.000873                       # mshr miss rate for demand accesses
system.cpu.icache.overall_mshr_miss_rate::.cpu.inst     0.000873                       # mshr miss rate for overall accesses
system.cpu.icache.overall_mshr_miss_rate::total     0.000873                       # mshr miss rate for overall accesses
system.cpu.icache.demand_avg_mshr_miss_latency::.cpu.inst 76488.532945                       # average overall mshr miss latency
system.cpu.icache.demand_avg_mshr_miss_latency::total 76488.532945                       # average overall mshr miss latency
system.cpu.icache.overall_avg_mshr_miss_latency::.cpu.inst 76488.532945                       # average overall mshr miss latency
system.cpu.icache.overall_avg_mshr_miss_latency::total 76488.532945                       # average overall mshr miss latency
system.cpu.icache.replacements                   2491                       # number of replacements
system.cpu.icache.ReadReq_hits::.cpu.inst      3145637                       # number of ReadReq hits
system.cpu.icache.ReadReq_hits::total         3145637                       # number of ReadReq hits
system.cpu.icache.ReadReq_misses::.cpu.inst         2747                       # number of ReadReq misses
system.cpu.icache.ReadReq_misses::total          2747                       # number of ReadReq misses
system.cpu.icache.ReadReq_miss_latency::.cpu.inst    215608000                       # number of ReadReq miss cycles
system.cpu.icache.ReadReq_miss_latency::total    215608000                       # number of ReadReq miss cycles
system.cpu.icache.ReadReq_accesses::.cpu.inst      3148384                       # number of ReadReq accesses(hits+misses)
system.cpu.icache.ReadReq_accesses::total      3148384                       # number of ReadReq accesses(hits+misses)
system.cpu.icache.ReadReq_miss_rate::.cpu.inst     0.000873                       # miss rate for ReadReq accesses
system.cpu.icache.ReadReq_miss_rate::total     0.000873                       # miss rate for ReadReq accesses
system.cpu.icache.ReadReq_avg_miss_latency::.cpu.inst 78488.532945                       # average ReadReq miss latency
system.cpu.icache.ReadReq_avg_miss_latency::total 78488.532945                       # average ReadReq miss latency
system.cpu.icache.ReadReq_mshr_misses::.cpu.inst         2747                       # number of ReadReq MSHR misses
system.cpu.icache.ReadReq_mshr_misses::total         2747                       # number of ReadReq MSHR misses
system.cpu.icache.ReadReq_mshr_miss_latency::.cpu.inst    210114000                       # number of ReadReq MSHR miss cycles
system.cpu.icache.ReadReq_mshr_miss_latency::total    210114000                       # number of ReadReq MSHR miss cycles
system.cpu.icache.ReadReq_mshr_miss_rate::.cpu.inst     0.000873                       # mshr miss rate for ReadReq accesses
system.cpu.icache.ReadReq_mshr_miss_rate::total     0.000873                       # mshr miss rate for ReadReq accesses
system.cpu.icache.ReadReq_avg_mshr_miss_latency::.cpu.inst 76488.532945                       # average ReadReq mshr miss latency
system.cpu.icache.ReadReq_avg_mshr_miss_latency::total 76488.532945                       # average ReadReq mshr miss latency
system.cpu.icache.power_state.pwrStateResidencyTicks::UNDEFINED   9156994000                       # Cumulative time (in ticks) in various power states
system.cpu.icache.tags.tagsinuse           252.725196                       # Cycle average of tags in use
system.cpu.icache.tags.total_refs             3148384                       # Total number of references to valid blocks.
system.cpu.icache.tags.sampled_refs              2747                       # Sample count of references to valid blocks.
system.cpu.icache.tags.avg_refs           1146.117219                       # Average number of references to valid blocks.
system.cpu.icache.tags.warmup_cycle            107000                       # Cycle when the warmup percentage was hit.
system.cpu.icache.tags.occ_blocks::.cpu.inst   252.725196                       # Average occupied blocks per requestor
system.cpu.icache.tags.occ_percent::.cpu.inst     0.987208                       # Average percentage of cache occupancy
system.cpu.icache.tags.occ_percent::total     0.987208                       # Average percentage of cache occupancy
system.cpu.icache.tags.occ_task_id_blocks::1024          256                       # Occupied blocks per task id
system.cpu.icache.tags.age_task_id_blocks_1024::0           50                       # Occupied blocks per task id
system.cpu.icache.tags.age_task_id_blocks_1024::1          111                       # Occupied blocks per task id
system.cpu.icache.tags.age_task_id_blocks_1024::2           88                       # Occupied blocks per task id
system.cpu.icache.tags.age_task_id_blocks_1024::3            7                       # Occupied blocks per task id
system.cpu.icache.tags.occ_task_id_percent::1024            1                       # Percentage of cache occupancy per task id
system.cpu.icache.tags.tag_accesses           6299515                       # Number of tag accesses
system.cpu.icache.tags.data_accesses          6299515                       # Number of data accesses
system.cpu.icache.tags.power_state.pwrStateResidencyTicks::UNDEFINED   9156994000                       # Cumulative time (in ticks) in various power states
system.cpu.interrupts.clk_domain.clock          16000                       # Clock period in ticks
system.cpu.itb.rdAccesses                           0                       # TLB accesses on read requests
system.cpu.itb.wrAccesses                     3148514                       # TLB accesses on write requests
system.cpu.itb.rdMisses                             0                       # TLB misses on read requests
system.cpu.itb.wrMisses                           466                       # TLB misses on write requests
system.cpu.itb.walker.power_state.pwrStateResidencyTicks::UNDEFINED   9156994000                       # Cumulative time (in ticks) in various power states
system.cpu.power_state.pwrStateResidencyTicks::ON   9156994000                       # Cumulative time (in ticks) in various power states
system.cpu.thread_0.numInsts                        0                       # Number of Instructions committed
system.cpu.thread_0.numOps                          0                       # Number of Ops committed
system.cpu.thread_0.numMemRefs                      0                       # Number of Memory References
system.l2bus.trans_dist::ReadResp               15819                       # Transaction distribution
system.l2bus.trans_dist::WritebackDirty          3127                       # Transaction distribution
system.l2bus.trans_dist::CleanEvict             14122                       # Transaction distribution
system.l2bus.trans_dist::ReadExReq               2369                       # Transaction distribution
system.l2bus.trans_dist::ReadExResp              2369                       # Transaction distribution
system.l2bus.trans_dist::ReadSharedReq          15819                       # Transaction distribution
system.l2bus.pkt_count_system.cpu.icache.mem_side_port::system.l2cache.cpu_side_port         7985                       # Packet count per connected requestor and responder (bytes)
system.l2bus.pkt_count_system.cpu.dcache.mem_side_port::system.l2cache.cpu_side_port        45299                       # Packet count per connected requestor and responder (bytes)
system.l2bus.pkt_count::total                   53284                       # Packet count per connected requestor and responder (bytes)
system.l2bus.pkt_size_system.cpu.icache.mem_side_port::system.l2cache.cpu_side_port       175808                       # Cumulative packet size per connected requestor and responder (bytes)
system.l2bus.pkt_size_system.cpu.dcache.mem_side_port::system.l2cache.cpu_side_port      1187264                       # Cumulative packet size per connected requestor and responder (bytes)
system.l2bus.pkt_size::total                  1363072                       # Cumulative packet size per connected requestor and responder (bytes)
system.l2bus.snoops                               341                       # Total snoops (count)
system.l2bus.snoopTraffic                        1088                       # Total snoop traffic (bytes)
system.l2bus.snoop_fanout::samples              18529                       # Request fanout histogram
system.l2bus.snoop_fanout::mean              0.012953                       # Request fanout histogram
system.l2bus.snoop_fanout::stdev             0.113073                       # Request fanout histogram
system.l2bus.snoop_fanout::underflows               0      0.00%      0.00% # Request fanout histogram
system.l2bus.snoop_fanout::0                    18289     98.70%     98.70% # Request fanout histogram
system.l2bus.snoop_fanout::1                      240      1.30%    100.00% # Request fanout histogram
system.l2bus.snoop_fanout::2                        0      0.00%    100.00% # Request fanout histogram
system.l2bus.snoop_fanout::overflows                0      0.00%    100.00% # Request fanout histogram
system.l2bus.snoop_fanout::min_value                0                       # Request fanout histogram
system.l2bus.snoop_fanout::max_value                1                       # Request fanout histogram
system.l2bus.snoop_fanout::total                18529                       # Request fanout histogram
system.l2bus.power_state.pwrStateResidencyTicks::UNDEFINED   9156994000                       # Cumulative time (in ticks) in various power states
system.l2bus.reqLayer0.occupancy             41316000                       # Layer occupancy (ticks)
system.l2bus.reqLayer0.utilization                0.5                       # Layer utilization (%)
system.l2bus.respLayer0.occupancy             8241000                       # Layer occupancy (ticks)
system.l2bus.respLayer0.utilization               0.1                       # Layer utilization (%)
system.l2bus.respLayer1.occupancy            46323000                       # Layer occupancy (ticks)
system.l2bus.respLayer1.utilization               0.5                       # Layer utilization (%)
system.l2cache.demand_hits::.cpu.inst             897                       # number of demand (read+write) hits
system.l2cache.demand_hits::.cpu.data            5373                       # number of demand (read+write) hits
system.l2cache.demand_hits::total                6270                       # number of demand (read+write) hits
system.l2cache.overall_hits::.cpu.inst            897                       # number of overall hits
system.l2cache.overall_hits::.cpu.data           5373                       # number of overall hits
system.l2cache.overall_hits::total               6270                       # number of overall hits
system.l2cache.demand_misses::.cpu.inst          1850                       # number of demand (read+write) misses
system.l2cache.demand_misses::.cpu.data         10068                       # number of demand (read+write) misses
system.l2cache.demand_misses::total             11918                       # number of demand (read+write) misses
system.l2cache.overall_misses::.cpu.inst         1850                       # number of overall misses
system.l2cache.overall_misses::.cpu.data        10068                       # number of overall misses
system.l2cache.overall_misses::total            11918                       # number of overall misses
system.l2cache.demand_miss_latency::.cpu.inst    183011000                       # number of demand (read+write) miss cycles
system.l2cache.demand_miss_latency::.cpu.data   1028401000                       # number of demand (read+write) miss cycles
system.l2cache.demand_miss_latency::total   1211412000                       # number of demand (read+write) miss cycles
system.l2cache.overall_miss_latency::.cpu.inst    183011000                       # number of overall miss cycles
system.l2cache.overall_miss_latency::.cpu.data   1028401000                       # number of overall miss cycles
system.l2cache.overall_miss_latency::total   1211412000                       # number of overall miss cycles
system.l2cache.demand_accesses::.cpu.inst         2747                       # number of demand (read+write) accesses
system.l2cache.demand_accesses::.cpu.data        15441                       # number of demand (read+write) accesses
system.l2cache.demand_accesses::total           18188                       # number of demand (read+write) accesses
system.l2cache.overall_accesses::.cpu.inst         2747                       # number of overall (read+write) accesses
system.l2cache.overall_accesses::.cpu.data        15441                       # number of overall (read+write) accesses
system.l2cache.overall_accesses::total          18188                       # number of overall (read+write) accesses
system.l2cache.demand_miss_rate::.cpu.inst     0.673462                       # miss rate for demand accesses
system.l2cache.demand_miss_rate::.cpu.data     0.652030                       # miss rate for demand accesses
system.l2cache.demand_miss_rate::total       0.655267                       # miss rate for demand accesses
system.l2cache.overall_miss_rate::.cpu.inst     0.673462                       # miss rate for overall accesses
system.l2cache.overall_miss_rate::.cpu.data     0.652030                       # miss rate for overall accesses
system.l2cache.overall_miss_rate::total      0.655267                       # miss rate for overall accesses
system.l2cache.demand_avg_miss_latency::.cpu.inst 98924.864865                       # average overall miss latency
system.l2cache.demand_avg_miss_latency::.cpu.data 102145.510528                       # average overall miss latency
system.l2cache.demand_avg_miss_latency::total 101645.578117                       # average overall miss latency
system.l2cache.overall_avg_miss_latency::.cpu.inst 98924.864865                       # average overall miss latency
system.l2cache.overall_avg_miss_latency::.cpu.data 102145.510528                       # average overall miss latency
system.l2cache.overall_avg_miss_latency::total 101645.578117                       # average overall miss latency
system.l2cache.blocked_cycles::no_mshrs             0                       # number of cycles access was blocked
system.l2cache.blocked_cycles::no_targets            0                       # number of cycles access was blocked
system.l2cache.blocked::no_mshrs                    0                       # number of cycles access was blocked
system.l2cache.blocked::no_targets                  0                       # number of cycles access was blocked
system.l2cache.avg_blocked_cycles::no_mshrs          nan                       # average number of cycles each access was blocked
system.l2cache.avg_blocked_cycles::no_targets          nan                       # average number of cycles each access was blocked
system.l2cache.writebacks::.writebacks             17                       # number of writebacks
system.l2cache.writebacks::total                   17                       # number of writebacks
system.l2cache.demand_mshr_misses::.cpu.inst         1850                       # number of demand (read+write) MSHR misses
system.l2cache.demand_mshr_misses::.cpu.data        10068                       # number of demand (read+write) MSHR misses
system.l2cache.demand_mshr_misses::total        11918                       # number of demand (read+write) MSHR misses
system.l2cache.overall_mshr_misses::.cpu.inst         1850                       # number of overall MSHR misses
system.l2cache.overall_mshr_misses::.cpu.data        10068                       # number of overall MSHR misses
system.l2cache.overall_mshr_misses::total        11918                       # number of overall MSHR misses
system.l2cache.demand_mshr_miss_latency::.cpu.inst    146011000                       # number of demand (read+write) MSHR miss cycles
system.l2cache.demand_mshr_miss_latency::.cpu.data    827041000                       # number of demand (read+write) MSHR miss cycles
system.l2cache.demand_mshr_miss_latency::total    973052000                       # number of demand (read+write) MSHR miss cycles
system.l2cache.overall_mshr_miss_latency::.cpu.inst    146011000                       # number of overall MSHR miss cycles
system.l2cache.overall_mshr_miss_latency::.cpu.data    827041000                       # number of overall MSHR miss cycles
system.l2cache.overall_mshr_miss_latency::total    973052000                       # number of overall MSHR miss cycles
system.l2cache.demand_mshr_miss_rate::.cpu.inst     0.673462                       # mshr miss rate for demand accesses
system.l2cache.demand_mshr_miss_rate::.cpu.data     0.652030                       # mshr miss rate for demand accesses
system.l2cache.demand_mshr_miss_rate::total     0.655267                       # mshr miss rate for demand accesses
system.l2cache.overall_mshr_miss_rate::.cpu.inst     0.673462                       # mshr miss rate for overall accesses
system.l2cache.overall_mshr_miss_rate::.cpu.data     0.652030                       # mshr miss rate for overall accesses
system.l2cache.overall_mshr_miss_rate::total     0.655267                       # mshr miss rate for overall accesses
system.l2cache.demand_avg_mshr_miss_latency::.cpu.inst 78924.864865                       # average overall mshr miss latency
system.l2cache.demand_avg_mshr_miss_latency::.cpu.data 82145.510528                       # average overall mshr miss latency
system.l2cache.demand_avg_mshr_miss_latency::total 81645.578117                       # average overall mshr miss latency
system.l2cache.overall_avg_mshr_miss_latency::.cpu.inst 78924.864865                       # average overall mshr miss latency
system.l2cache.overall_avg_mshr_miss_latency::.cpu.data 82145.510528                       # average overall mshr miss latency
system.l2cache.overall_avg_mshr_miss_latency::total 81645.578117                       # average overall mshr miss latency
system.l2cache.replacements                       104                       # number of replacements
system.l2cache.WritebackDirty_hits::.writebacks         3108                       # number of WritebackDirty hits
system.l2cache.WritebackDirty_hits::total         3108                       # number of WritebackDirty hits
system.l2cache.WritebackDirty_misses::.writebacks            2                       # number of WritebackDirty misses
system.l2cache.WritebackDirty_misses::total            2                       # number of WritebackDirty misses
system.l2cache.WritebackDirty_accesses::.writebacks         3110                       # number of WritebackDirty accesses(hits+misses)
system.l2cache.WritebackDirty_accesses::total         3110                       # number of WritebackDirty accesses(hits+misses)
system.l2cache.WritebackDirty_miss_rate::.writebacks     0.000643                       # miss rate for WritebackDirty accesses
system.l2cache.WritebackDirty_miss_rate::total     0.000643                       # miss rate for WritebackDirty accesses
system.l2cache.WritebackDirty_mshr_misses::.writebacks            2                       # number of WritebackDirty MSHR misses
system.l2cache.WritebackDirty_mshr_misses::total            2                       # number of WritebackDirty MSHR misses
system.l2cache.WritebackDirty_mshr_miss_rate::.writebacks     0.000643                       # mshr miss rate for WritebackDirty accesses
system.l2cache.WritebackDirty_mshr_miss_rate::total     0.000643                       # mshr miss rate for WritebackDirty accesses
system.l2cache.CleanEvict_mshr_misses::.writebacks          168                       # number of CleanEvict MSHR misses
system.l2cache.CleanEvict_mshr_misses::total          168                       # number of CleanEvict MSHR misses
system.l2cache.CleanEvict_mshr_miss_rate::.writebacks          inf                       # mshr miss rate for CleanEvict accesses
system.l2cache.CleanEvict_mshr_miss_rate::total          inf                       # mshr miss rate for CleanEvict accesses
system.l2cache.ReadExReq_hits::.cpu.data          704                       # number of ReadExReq hits
system.l2cache.ReadExReq_hits::total              704                       # number of ReadExReq hits
system.l2cache.ReadExReq_misses::.cpu.data         1665                       # number of ReadExReq misses
system.l2cache.ReadExReq_misses::total           1665                       # number of ReadExReq misses
system.l2cache.ReadExReq_miss_latency::.cpu.data    163311000                       # number of ReadExReq miss cycles
system.l2cache.ReadExReq_miss_latency::total    163311000                       # number of ReadExReq miss cycles
system.l2cache.ReadExReq_accesses::.cpu.data         2369                       # number of ReadExReq accesses(hits+misses)
system.l2cache.ReadExReq_accesses::total         2369                       # number of ReadExReq accesses(hits+misses)
system.l2cache.ReadExReq_miss_rate::.cpu.data     0.702828                       # miss rate for ReadExReq accesses
system.l2cache.ReadExReq_miss_rate::total     0.702828                       # miss rate for ReadExReq accesses
system.l2cache.ReadExReq_avg_miss_latency::.cpu.data 98084.684685                       # average ReadExReq miss latency
system.l2cache.ReadExReq_avg_miss_latency::total 98084.684685                       # average ReadExReq miss latency
system.l2cache.ReadExReq_mshr_misses::.cpu.data         1665                       # number of ReadExReq MSHR misses
system.l2cache.ReadExReq_mshr_misses::total         1665                       # number of ReadExReq MSHR misses
system.l2cache.ReadExReq_mshr_miss_latency::.cpu.data    130011000                       # number of ReadExReq MSHR miss cycles
system.l2cache.ReadExReq_mshr_miss_latency::total    130011000                       # number of ReadExReq MSHR miss cycles
system.l2cache.ReadExReq_mshr_miss_rate::.cpu.data     0.702828                       # mshr miss rate for ReadExReq accesses
system.l2cache.ReadExReq_mshr_miss_rate::total     0.702828                       # mshr miss rate for ReadExReq accesses
system.l2cache.ReadExReq_avg_mshr_miss_latency::.cpu.data 78084.684685                       # average ReadExReq mshr miss latency
system.l2cache.ReadExReq_avg_mshr_miss_latency::total 78084.684685                       # average ReadExReq mshr miss latency
system.l2cache.ReadSharedReq_hits::.cpu.inst          897                       # number of ReadSharedReq hits
system.l2cache.ReadSharedReq_hits::.cpu.data         4669                       # number of ReadSharedReq hits
system.l2cache.ReadSharedReq_hits::total         5566                       # number of ReadSharedReq hits
system.l2cache.ReadSharedReq_misses::.cpu.inst         1850                       # number of ReadSharedReq misses
system.l2cache.ReadSharedReq_misses::.cpu.data         8403                       # number of ReadSharedReq misses
system.l2cache.ReadSharedReq_misses::total        10253                       # number of ReadSharedReq misses
system.l2cache.ReadSharedReq_miss_latency::.cpu.inst    183011000                       # number of ReadSharedReq miss cycles
system.l2cache.ReadSharedReq_miss_latency::.cpu.data    865090000                       # number of ReadSharedReq miss cycles
system.l2cache.ReadSharedReq_miss_latency::total   1048101000                       # number of ReadSharedReq miss cycles
system.l2cache.ReadSharedReq_accesses::.cpu.inst         2747                       # number of ReadSharedReq accesses(hits+misses)
system.l2cache.ReadSharedReq_accesses::.cpu.data        13072                       # number of ReadSharedReq accesses(hits+misses)
system.l2cache.ReadSharedReq_accesses::total        15819                       # number of ReadSharedReq accesses(hits+misses)
system.l2cache.ReadSharedReq_miss_rate::.cpu.inst     0.673462                       # miss rate for ReadSharedReq accesses
system.l2cache.ReadSharedReq_miss_rate::.cpu.data     0.642824                       # miss rate for ReadSharedReq accesses
system.l2cache.ReadSharedReq_miss_rate::total     0.648145                       # miss rate for ReadSharedReq accesses
system.l2cache.ReadSharedReq_avg_miss_latency::.cpu.inst 98924.864865                       # average ReadSharedReq miss latency
system.l2cache.ReadSharedReq_avg_miss_latency::.cpu.data 102950.136856                       # average ReadSharedReq miss latency
system.l2cache.ReadSharedReq_avg_miss_latency::total 102223.836926                       # average ReadSharedReq miss latency
system.l2cache.ReadSharedReq_mshr_misses::.cpu.inst         1850                       # number of ReadSharedReq MSHR misses
system.l2cache.ReadSharedReq_mshr_misses::.cpu.data         8403                       # number of ReadSharedReq MSHR misses
system.l2cache.ReadSharedReq_mshr_misses::total        10253                       # number of ReadSharedReq MSHR misses
system.l2cache.ReadSharedReq_mshr_miss_latency::.cpu.inst    146011000                       # number of ReadSharedReq MSHR miss cycles
system.l2cache.ReadSharedReq_mshr_miss_latency::.cpu.data    697030000                       # number of ReadSharedReq MSHR miss cycles
system.l2cache.ReadSharedReq_mshr_miss_latency::total    843041000                       # number of ReadSharedReq MSHR miss cycles
system.l2cache.ReadSharedReq_mshr_miss_rate::.cpu.inst     0.673462                       # mshr miss rate for ReadSharedReq accesses
system.l2cache.ReadSharedReq_mshr_miss_rate::.cpu.data     0.642824                       # mshr miss rate for ReadSharedReq accesses
system.l2cache.ReadSharedReq_mshr_miss_rate::total     0.648145                       # mshr miss rate for ReadSharedReq accesses
system.l2cache.ReadSharedReq_avg_mshr_miss_latency::.cpu.inst 78924.864865                       # average ReadSharedReq mshr miss latency
system.l2cache.ReadSharedReq_avg_mshr_miss_latency::.cpu.data 82950.136856                       # average ReadSharedReq mshr miss latency
system.l2cache.ReadSharedReq_avg_mshr_miss_latency::total 82223.836926                       # average ReadSharedReq mshr miss latency
system.l2cache.power_state.pwrStateResidencyTicks::UNDEFINED   9156994000                       # Cumulative time (in ticks) in various power states
system.l2cache.replacement_policy.totalBypasses          239                       # Total number of cache bypasses
system.l2cache.replacement_policy.effectiveBypasses            0                       # Bypasses that correctly skipped non-reused blocks
system.l2cache.replacement_policy.ineffectiveBypasses          166                       # Bypasses that incorrectly skipped requested blocks
system.l2cache.replacement_policy.virtualEffectiveBypasses            1                       # Virtual bypasses correctly predicting non-reused blocks
system.l2cache.replacement_policy.virtualIneffectiveBypasses          524                       # Virtual bypasses incorrectly predicting requested blocks
system.l2cache.tags.tagsinuse             6528.564491                       # Cycle average of tags in use
system.l2cache.tags.total_refs                  34689                       # Total number of references to valid blocks.
system.l2cache.tags.sampled_refs                11746                       # Sample count of references to valid blocks.
system.l2cache.tags.avg_refs                 2.953261                       # Average number of references to valid blocks.
system.l2cache.tags.warmup_cycle                86000                       # Cycle when the warmup percentage was hit.
system.l2cache.tags.occ_blocks::.writebacks    54.571764                       # Average occupied blocks per requestor
system.l2cache.tags.occ_blocks::.cpu.inst   724.142569                       # Average occupied blocks per requestor
system.l2cache.tags.occ_blocks::.cpu.data  5749.850158                       # Average occupied blocks per requestor
system.l2cache.tags.occ_percent::.writebacks     0.003331                       # Average percentage of cache occupancy
system.l2cache.tags.occ_percent::.cpu.inst     0.044198                       # Average percentage of cache occupancy
system.l2cache.tags.occ_percent::.cpu.data     0.350943                       # Average percentage of cache occupancy
system.l2cache.tags.occ_percent::total       0.398472                       # Average percentage of cache occupancy
system.l2cache.tags.occ_task_id_blocks::1024        11642                       # Occupied blocks per task id
system.l2cache.tags.age_task_id_blocks_1024::0           51                       # Occupied blocks per task id
system.l2cache.tags.age_task_id_blocks_1024::1          130                       # Occupied blocks per task id
system.l2cache.tags.age_task_id_blocks_1024::2         1972                       # Occupied blocks per task id
system.l2cache.tags.age_task_id_blocks_1024::3         9489                       # Occupied blocks per task id
system.l2cache.tags.occ_task_id_percent::1024     0.710571                       # Percentage of cache occupancy per task id
system.l2cache.tags.tag_accesses               292514                       # Number of tag accesses
system.l2cache.tags.data_accesses              292514                       # Number of data accesses
system.l2cache.tags.power_state.pwrStateResidencyTicks::UNDEFINED   9156994000                       # Cumulative time (in ticks) in various power states
system.mem_ctrl.avgPriority_.writebacks::samples        19.00                       # Average QoS priority value for accepted requests
system.mem_ctrl.avgPriority_.cpu.inst::samples      1850.00                       # Average QoS priority value for accepted requests
system.mem_ctrl.avgPriority_.cpu.data::samples     10065.00                       # Average QoS priority value for accepted requests
system.mem_ctrl.priorityMinLatency       0.000000018750                       # per QoS priority minimum request to response latency (s)
system.mem_ctrl.priorityMaxLatency       0.000000575000                       # per QoS priority maximum request to response latency (s)
system.mem_ctrl.numReadWriteTurnArounds             0                       # Number of turnarounds from READ to WRITE
system.mem_ctrl.numWriteReadTurnArounds             0                       # Number of turnarounds from WRITE to READ
system.mem_ctrl.numStayReadState                26201                       # Number of times bus staying in READ state
system.mem_ctrl.numStayWriteState                   0                       # Number of times bus staying in WRITE state
system.mem_ctrl.readReqs                        11918                       # Number of read requests accepted
system.mem_ctrl.writeReqs                          19                       # Number of write requests accepted
system.mem_ctrl.readBursts                      11918                       # Number of controller read bursts, including those serviced by the write queue
system.mem_ctrl.writeBursts                        19                       # Number of controller write bursts, including those merged in the write queue
system.mem_ctrl.servicedByWrQ                       3                       # Number of controller read bursts serviced by the write queue
system.mem_ctrl.mergedWrBursts                      0                       # Number of controller write bursts merged with an existing one
system.mem_ctrl.neitherReadNorWriteReqs             0                       # Number of requests that are neither read nor write
system.mem_ctrl.avgRdQLen                        1.00                       # Average read queue length when enqueuing
system.mem_ctrl.avgWrQLen                        2.49                       # Average write queue length when enqueuing
system.mem_ctrl.numRdRetry                          0                       # Number of times read queue was full causing retry
system.mem_ctrl.numWrRetry                          0                       # Number of times write queue was full causing retry
system.mem_ctrl.readPktSize::0                      0                       # Read request sizes (log2)
system.mem_ctrl.readPktSize::1                      0                       # Read request sizes (log2)
system.mem_ctrl.readPktSize::2                      0                       # Read request sizes (log2)
system.mem_ctrl.readPktSize::3                      0                       # Read request sizes (log2)
system.mem_ctrl.readPktSize::4                      0                       # Read request sizes (log2)
system.mem_ctrl.readPktSize::5                      0                       # Read request sizes (log2)
system.mem_ctrl.readPktSize::6                  11918                       # Read request sizes (log2)
system.mem_ctrl.writePktSize::0                     0                       # Write request sizes (log2)
system.mem_ctrl.writePktSize::1                     0                       # Write request sizes (log2)
system.mem_ctrl.writePktSize::2                     0                       # Write request sizes (log2)
system.mem_ctrl.writePktSize::3                     0                       # Write request sizes (log2)
system.mem_ctrl.writePktSize::4                     0                       # Write request sizes (log2)
system.mem_ctrl.writePktSize::5                     0                       # Write request sizes (log2)
system.mem_ctrl.writePktSize::6                    19                       # Write request sizes (log2)
system.mem_ctrl.rdQLenPdf::0                    11915                       # What read queue length does an incoming req see
system.mem_ctrl.rdQLenPdf::1                        0                       # What read queue length does an incoming req see
system.mem_ctrl.rdQLenPdf::2                        0                       # What read queue length does an incoming req see
system.mem_ctrl.rdQLenPdf::3                        0                       # What read queue length does an incoming req see
system.mem_ctrl.rdQLenPdf::4                        0                       # What read queue length does an incoming req see
system.mem_ctrl.rdQLenPdf::5                        0                       # What read queue length does an incoming req see
system.mem_ctrl.rdQLenPdf::6                        0                       # What read queue length does an incoming req see
system.mem_ctrl.rdQLenPdf::7                        0                       # What read queue length does an incoming req see
system.mem_ctrl.rdQLenPdf::8                        0                       # What read queue length does an incoming req see
system.mem_ctrl.rdQLenPdf::9                        0                       # What read queue length does an incoming req see
system.mem_ctrl.rdQLenPdf::10                       0                       # What read queue length does an incoming req see
system.mem_ctrl.rdQLenPdf::11                       0                       # What read queue length does an incoming req see
system.mem_ctrl.rdQLenPdf::12                       0                       # What read queue length does an incoming req see
system.mem_ctrl.rdQLenPdf::13                       0                       # What read queue length does an incoming req see
system.mem_ctrl.rdQLenPdf::14                       0                       # What read queue length does an incoming req see
system.mem_ctrl.rdQLenPdf::15                       0                       # What read queue length does an incoming req see
system.mem_ctrl.rdQLenPdf::16                       0                       # What read queue length does an incoming req see
system.mem_ctrl.rdQLenPdf::17                       0                       # What read queue length does an incoming req see
system.mem_ctrl.rdQLenPdf::18                       0                       # What read queue length does an incoming req see
system.mem_ctrl.rdQLenPdf::19                       0                       # What read queue length does an incoming req see
system.mem_ctrl.rdQLenPdf::20                       0                       # What read queue length does an incoming req see
system.mem_ctrl.rdQLenPdf::21                       0                       # What read queue length does an incoming req see
system.mem_ctrl.rdQLenPdf::22                       0                       # What read queue length does an incoming req see
system.mem_ctrl.rdQLenPdf::23                       0                       # What read queue length does an incoming req see
system.mem_ctrl.rdQLenPdf::24                       0                       # What read queue length does an incoming req see
system.mem_ctrl.rdQLenPdf::25                       0                       # What read queue length does an incoming req see
system.mem_ctrl.rdQLenPdf::26                       0                       # What read queue length does an incoming req see
system.mem_ctrl.rdQLenPdf::27                       0                       # What read queue length does an incoming req see
system.mem_ctrl.rdQLenPdf::28                       0                       # What read queue length does an incoming req see
system.mem_ctrl.rdQLenPdf::29                       0                       # What read queue length does an incoming req see
system.mem_ctrl.rdQLenPdf::30                       0                       # What read queue length does an incoming req see
system.mem_ctrl.rdQLenPdf::31                       0                       # What read queue length does an incoming req see
system.mem_ctrl.wrQLenPdf::0                        1                       # What write queue length does an incoming req see
system.mem_ctrl.wrQLenPdf::1                        1                       # What write queue length does an incoming req see
system.mem_ctrl.wrQLenPdf::2                        1                       # What write queue length does an incoming req see
system.mem_ctrl.wrQLenPdf::3                        1                       # What write queue length does an incoming req see
system.mem_ctrl.wrQLenPdf::4                        1                       # What write queue length does an incoming req see
system.mem_ctrl.wrQLenPdf::5                        1                       # What write queue length does an incoming req see
system.mem_ctrl.wrQLenPdf::6                        1                       # What write queue length does an incoming req see
system.mem_ctrl.wrQLenPdf::7                        1                       # What write queue length does an incoming req see
system.mem_ctrl.wrQLenPdf::8                        1                       # What write queue length does an incoming req see
system.mem_ctrl.wrQLenPdf::9                        1                       # What write queue length does an incoming req see
system.mem_ctrl.wrQLenPdf::10                       1                       # What write queue length does an incoming req see
system.mem_ctrl.wrQLenPdf::11                       1                       # What write queue length does an incoming req see
system.mem_ctrl.wrQLenPdf::12                       1                       # What write queue length does an incoming req see
system.mem_ctrl.wrQLenPdf::13                       1                       # What write queue length does an incoming req see
system.mem_ctrl.wrQLenPdf::14                       1                       # What write queue length does an incoming req see
system.mem_ctrl.wrQLenPdf::15                       1                       # What write queue length does an incoming req see
system.mem_ctrl.wrQLenPdf::16                       1                       # What write queue length does an incoming req see
system.mem_ctrl.wrQLenPdf::17                       1                       # What write queue length does an incoming req see
system.mem_ctrl.wrQLenPdf::18                       1                       # What write queue length does an incoming req see
system.mem_ctrl.wrQLenPdf::19                       0                       # What write queue length does an incoming req see
system.mem_ctrl.wrQLenPdf::20                       0                       # What write queue length does an incoming req see
system.mem_ctrl.wrQLenPdf::21                       0                       # What write queue length does an incoming req see
system.mem_ctrl.wrQLenPdf::22                       0                       # What write queue length does an incoming req see
system.mem_ctrl.wrQLenPdf::23                       0                       # What write queue length does an incoming req see
system.mem_ctrl.wrQLenPdf::24                       0                       # What write queue length does an incoming req see
system.mem_ctrl.wrQLenPdf::25                       0                       # What write queue length does an incoming req see
system.mem_ctrl.wrQLenPdf::26                       0                       # What write queue length does an incoming req see
system.mem_ctrl.wrQLenPdf::27                       0                       # What write queue length does an incoming req see
system.mem_ctrl.wrQLenPdf::28                       0                       # What write queue length does an incoming req see
system.mem_ctrl.wrQLenPdf::29                       0                       # What write queue length does an incoming req see
system.mem_ctrl.wrQLenPdf::30                       0                       # What write queue length does an incoming req see
system.mem_ctrl.wrQLenPdf::31                       0                       # What write queue length does an incoming req see
system.mem_ctrl.wrQLenPdf::32                       0                       # What write queue length does an incoming req see
system.mem_ctrl.wrQLenPdf::33                       0                       # What write queue length does an incoming req see
system.mem_ctrl.wrQLenPdf::34                       0                       # What write queue length does an incoming req see
system.mem_ctrl.wrQLenPdf::35                       0                       # What write queue length does an incoming req see
system.mem_ctrl.wrQLenPdf::36                       0                       # What write queue length does an incoming req see
system.mem_ctrl.wrQLenPdf::37                       0                       # What write queue length does an incoming req see
system.mem_ctrl.wrQLenPdf::38                       0                       # What write queue length does an incoming req see
system.mem_ctrl.wrQLenPdf::39                       0                       # What write queue length does an incoming req see
system.mem_ctrl.wrQLenPdf::40                       0                       # What write queue length does an incoming req see
system.mem_ctrl.wrQLenPdf::41                       0                       # What write queue length does an incoming req see
system.mem_ctrl.wrQLenPdf::42                       0                       # What write queue length does an incoming req see
system.mem_ctrl.wrQLenPdf::43                       0                       # What write queue length does an incoming req see
system.mem_ctrl.wrQLenPdf::44                       0                       # What write queue length does an incoming req see
system.mem_ctrl.wrQLenPdf::45                       0                       # What write queue length does an incoming req see
system.mem_ctrl.wrQLenPdf::46                       0                       # What write queue length does an incoming req see
system.mem_ctrl.wrQLenPdf::47                       0                       # What write queue length does an incoming req see
system.mem_ctrl.wrQLenPdf::48                       0                       # What write queue length does an incoming req see
system.mem_ctrl.wrQLenPdf::49                       0                       # What write queue length does an incoming req see
system.mem_ctrl.wrQLenPdf::50                       0                       # What write queue length does an incoming req see
system.mem_ctrl.wrQLenPdf::51                       0                       # What write queue length does an incoming req see
system.mem_ctrl.wrQLenPdf::52                       0                       # What write queue length does an incoming req see
system.mem_ctrl.wrQLenPdf::53                       0                       # What write queue length does an incoming req see
system.mem_ctrl.wrQLenPdf::54                       0                       # What write queue length does an incoming req see
system.mem_ctrl.wrQLenPdf::55                       0                       # What write queue length does an incoming req see
system.mem_ctrl.wrQLenPdf::56                       0                       # What write queue length does an incoming req see
system.mem_ctrl.wrQLenPdf::57                       0                       # What write queue length does an incoming req see
system.mem_ctrl.wrQLenPdf::58                       0                       # What write queue length does an incoming req see
system.mem_ctrl.wrQLenPdf::59                       0                       # What write queue length does an incoming req see
system.mem_ctrl.wrQLenPdf::60                       0                       # What write queue length does an incoming req see
system.mem_ctrl.wrQLenPdf::61                       0                       # What write queue length does an incoming req see
system.mem_ctrl.wrQLenPdf::62                       0                       # What write queue length does an incoming req see
system.mem_ctrl.wrQLenPdf::63                       0                       # What write queue length does an incoming req see
system.mem_ctrl.bytesReadWrQ                      192                       # Total number of bytes read from write queue
system.mem_ctrl.bytesReadSys                   762752                       # Total read bytes from the system interface side
system.mem_ctrl.bytesWrittenSys                  1216                       # Total written bytes from the system interface side
system.mem_ctrl.avgRdBWSys                      83.30                       # Average system read bandwidth in MiByte/s
system.mem_ctrl.avgWrBWSys                       0.13                       # Average system write bandwidth in MiByte/s
system.mem_ctrl.totGap                     9156666000                       # Total gap between requests
system.mem_ctrl.avgGap                      767082.68                       # Average gap between requests
system.mem_ctrl.requestorReadBytes::.cpu.inst       118400                       # Per-requestor bytes read from memory
system.mem_ctrl.requestorReadBytes::.cpu.data       644160                       # Per-requestor bytes read from memory
system.mem_ctrl.requestorReadRate::.cpu.inst 12930007.380151171237                       # Per-requestor bytes read from memory rate (Bytes/sec)
system.mem_ctrl.requestorReadRate::.cpu.data 70346229.341200828552                       # Per-requestor bytes read from memory rate (Bytes/sec)
system.mem_ctrl.requestorReadAccesses::.cpu.inst         1850                       # Per-requestor read serviced memory accesses
system.mem_ctrl.requestorReadAccesses::.cpu.data        10068                       # Per-requestor read serviced memory accesses
system.mem_ctrl.requestorWriteAccesses::.writebacks           19                       # Per-requestor write serviced memory accesses
system.mem_ctrl.requestorReadTotalLat::.cpu.inst     51025500                       # Per-requestor read total memory access latency
system.mem_ctrl.requestorReadTotalLat::.cpu.data    309694250                       # Per-requestor read total memory access latency
system.mem_ctrl.requestorReadAvgLat::.cpu.inst     27581.35                       # Per-requestor read average memory access latency
system.mem_ctrl.requestorReadAvgLat::.cpu.data     30760.26                       # Per-requestor read average memory access latency
system.mem_ctrl.requestorWriteAvgLat::.writebacks         0.00                       # Per-requestor write average memory access latency
system.mem_ctrl.dram.bytes_read::.cpu.inst       118400                       # Number of bytes read from this memory
system.mem_ctrl.dram.bytes_read::.cpu.data       644352                       # Number of bytes read from this memory
system.mem_ctrl.dram.bytes_read::total         762752                       # Number of bytes read from this memory
system.mem_ctrl.dram.bytes_inst_read::.cpu.inst       118400                       # Number of instructions bytes read from this memory
system.mem_ctrl.dram.bytes_inst_read::total       118400                       # Number of instructions bytes read from this memory
system.mem_ctrl.dram.bytes_written::.writebacks         1216                       # Number of bytes written to this memory
system.mem_ctrl.dram.bytes_written::total         1216                       # Number of bytes written to this memory
system.mem_ctrl.dram.num_reads::.cpu.inst         1850                       # Number of read requests responded to by this memory
system.mem_ctrl.dram.num_reads::.cpu.data        10068                       # Number of read requests responded to by this memory
system.mem_ctrl.dram.num_reads::total           11918                       # Number of read requests responded to by this memory
system.mem_ctrl.dram.num_writes::.writebacks           19                       # Number of write requests responded to by this memory
system.mem_ctrl.dram.num_writes::total             19                       # Number of write requests responded to by this memory
system.mem_ctrl.dram.bw_read::.cpu.inst      12930007                       # Total read bandwidth from this memory (bytes/s)
system.mem_ctrl.dram.bw_read::.cpu.data      70367197                       # Total read bandwidth from this memory (bytes/s)
system.mem_ctrl.dram.bw_read::total          83297204                       # Total read bandwidth from this memory (bytes/s)
system.mem_ctrl.dram.bw_inst_read::.cpu.inst     12930007                       # Instruction read bandwidth from this memory (bytes/s)
system.mem_ctrl.dram.bw_inst_read::total     12930007                       # Instruction read bandwidth from this memory (bytes/s)
system.mem_ctrl.dram.bw_write::.writebacks       132795                       # Write bandwidth from this memory (bytes/s)
system.mem_ctrl.dram.bw_write::total           132795                       # Write bandwidth from this memory (bytes/s)
system.mem_ctrl.dram.bw_total::.writebacks       132795                       # Total bandwidth to/from this memory (bytes/s)
system.mem_ctrl.dram.bw_total::.cpu.inst     12930007                       # Total bandwidth to/from this memory (bytes/s)
system.mem_ctrl.dram.bw_total::.cpu.data     70367197                       # Total bandwidth to/from this memory (bytes/s)
system.mem_ctrl.dram.bw_total::total         83429999                       # Total bandwidth to/from this memory (bytes/s)
system.mem_ctrl.dram.readBursts                 11915                       # Number of DRAM read bursts
system.mem_ctrl.dram.writeBursts                    0                       # Number of DRAM write bursts
system.mem_ctrl.dram.perBankRdBursts::0           900                       # Per bank write bursts
system.mem_ctrl.dram.perBankRdBursts::1           594                       # Per bank write bursts
system.mem_ctrl.dram.perBankRdBursts::2           710                       # Per bank write bursts
system.mem_ctrl.dram.perBankRdBursts::3           680                       # Per bank write bursts
system.mem_ctrl.dram.perBankRdBursts::4           832                       # Per bank write bursts
system.mem_ctrl.dram.perBankRdBursts::5           924                       # Per bank write bursts
system.mem_ctrl.dram.perBankRdBursts::6           847                       # Per bank write bursts
system.mem_ctrl.dram.perBankRdBursts::7           875                       # Per bank write bursts
system.mem_ctrl.dram.perBankRdBursts::8           646                       # Per bank write bursts
system.mem_ctrl.dram.perBankRdBursts::9           801                       # Per bank write bursts
system.mem_ctrl.dram.perBankRdBursts::10          725                       # Per bank write bursts
system.mem_ctrl.dram.perBankRdBursts::11          779                       # Per bank write bursts
system.mem_ctrl.dram.perBankRdBursts::12          649                       # Per bank write bursts
system.mem_ctrl.dram.perBankRdBursts::13          626                       # Per bank write bursts
system.mem_ctrl.dram.perBankRdBursts::14          636                       # Per bank write bursts
system.mem_ctrl.dram.perBankRdBursts::15          691                       # Per bank write bursts
system.mem_ctrl.dram.perBankWrBursts::0             0                       # Per bank write bursts
system.mem_ctrl.dram.perBankWrBursts::1             0                       # Per bank write bursts
system.mem_ctrl.dram.perBankWrBursts::2             0                       # Per bank write bursts
system.mem_ctrl.dram.perBankWrBursts::3             0                       # Per bank write bursts
system.mem_ctrl.dram.perBankWrBursts::4             0                       # Per bank write bursts
system.mem_ctrl.dram.perBankWrBursts::5             0                       # Per bank write bursts
system.mem_ctrl.dram.perBankWrBursts::6             0                       # Per bank write bursts
system.mem_ctrl.dram.perBankWrBursts::7             0                       # Per bank write bursts
system.mem_ctrl.dram.perBankWrBursts::8             0                       # Per bank write bursts
system.mem_ctrl.dram.perBankWrBursts::9             0                       # Per bank write bursts
system.mem_ctrl.dram.perBankWrBursts::10            0                       # Per bank write bursts
system.mem_ctrl.dram.perBankWrBursts::11            0                       # Per bank write bursts
system.mem_ctrl.dram.perBankWrBursts::12            0                       # Per bank write bursts
system.mem_ctrl.dram.perBankWrBursts::13            0                       # Per bank write bursts
system.mem_ctrl.dram.perBankWrBursts::14            0                       # Per bank write bursts
system.mem_ctrl.dram.perBankWrBursts::15            0                       # Per bank write bursts
system.mem_ctrl.dram.totQLat                137313500                       # Total ticks spent queuing
system.mem_ctrl.dram.totBusLat               59575000                       # Total ticks spent in databus transfers
system.mem_ctrl.dram.totMemAccLat           360719750                       # Total ticks spent from burst creation until serviced by the DRAM
system.mem_ctrl.dram.avgQLat                 11524.42                       # Average queueing delay per DRAM burst
system.mem_ctrl.dram.avgBusLat                5000.00                       # Average bus latency per DRAM burst
system.mem_ctrl.dram.avgMemAccLat            30274.42                       # Average memory access latency per DRAM burst
system.mem_ctrl.dram.readRowHits                 6283                       # Number of row buffer hits during reads
system.mem_ctrl.dram.writeRowHits                   0                       # Number of row buffer hits during writes
system.mem_ctrl.dram.readRowHitRate             52.73                       # Row buffer hit rate for reads
system.mem_ctrl.dram.writeRowHitRate              nan                       # Row buffer hit rate for writes
system.mem_ctrl.dram.bytesPerActivate::samples         5631                       # Bytes accessed per row activation
system.mem_ctrl.dram.bytesPerActivate::mean   135.410407                       # Bytes accessed per row activation
system.mem_ctrl.dram.bytesPerActivate::gmean    95.132320                       # Bytes accessed per row activation
system.mem_ctrl.dram.bytesPerActivate::stdev   180.081479                       # Bytes accessed per row activation
system.mem_ctrl.dram.bytesPerActivate::0-127         3761     66.79%     66.79% # Bytes accessed per row activation
system.mem_ctrl.dram.bytesPerActivate::128-255         1264     22.45%     89.24% # Bytes accessed per row activation
system.mem_ctrl.dram.bytesPerActivate::256-383          219      3.89%     93.13% # Bytes accessed per row activation
system.mem_ctrl.dram.bytesPerActivate::384-511          104      1.85%     94.97% # Bytes accessed per row activation
system.mem_ctrl.dram.bytesPerActivate::512-639           58      1.03%     96.00% # Bytes accessed per row activation
system.mem_ctrl.dram.bytesPerActivate::640-767           45      0.80%     96.80% # Bytes accessed per row activation
system.mem_ctrl.dram.bytesPerActivate::768-895           31      0.55%     97.35% # Bytes accessed per row activation
system.mem_ctrl.dram.bytesPerActivate::896-1023           27      0.48%     97.83% # Bytes accessed per row activation
system.mem_ctrl.dram.bytesPerActivate::1024-1151          122      2.17%    100.00% # Bytes accessed per row activation
system.mem_ctrl.dram.bytesPerActivate::total         5631                       # Bytes accessed per row activation
system.mem_ctrl.dram.bytesRead                 762560                       # Total number of bytes read from DRAM
system.mem_ctrl.dram.bytesWritten                   0                       # Total number of bytes written to DRAM
system.mem_ctrl.dram.avgRdBW                83.276237                       # Average DRAM read bandwidth in MiBytes/s
system.mem_ctrl.dram.avgWrBW                        0                       # Average DRAM write bandwidth in MiBytes/s
system.mem_ctrl.dram.peakBW                  12800.00                       # Theoretical peak bandwidth in MiByte/s
system.mem_ctrl.dram.busUtil                     0.65                       # Data bus utilization in percentage
system.mem_ctrl.dram.busUtilRead                 0.65                       # Data bus utilization in percentage for reads
system.mem_ctrl.dram.busUtilWrite                0.00                       # Data bus utilization in percentage for writes
system.mem_ctrl.dram.pageHitRate                52.73                       # Row buffer hit rate, read and write combined
system.mem_ctrl.dram.power_state.pwrStateResidencyTicks::UNDEFINED   9156994000                       # Cumulative time (in ticks) in various power states
system.mem_ctrl.dram.rank0.actEnergy         20913060                       # Energy for activate commands per rank (pJ)
system.mem_ctrl.dram.rank0.preEnergy         11115555                       # Energy for precharge commands per rank (pJ)
system.mem_ctrl.dram.rank0.readEnergy        45424680                       # Energy for read commands per rank (pJ)
system.mem_ctrl.dram.rank0.writeEnergy              0                       # Energy for write commands per rank (pJ)
system.mem_ctrl.dram.rank0.refreshEnergy 722816640.000000                       # Energy for refresh commands per rank (pJ)
system.mem_ctrl.dram.rank0.actBackEnergy   2867784000                       # Energy for active background per rank (pJ)
system.mem_ctrl.dram.rank0.preBackEnergy   1101310080                       # Energy for precharge background per rank (pJ)
system.mem_ctrl.dram.rank0.actPowerDownEnergy            0                       # Energy for active power-down per rank (pJ)
system.mem_ctrl.dram.rank0.prePowerDownEnergy            0                       # Energy for precharge power-down per rank (pJ)
system.mem_ctrl.dram.rank0.selfRefreshEnergy            0                       # Energy for self refresh per rank (pJ)
system.mem_ctrl.dram.rank0.totalEnergy     4769364015                       # Total energy per rank (pJ)
system.mem_ctrl.dram.rank0.averagePower    520.843851                       # Core power per rank (mW)
system.mem_ctrl.dram.rank0.totalIdleTime            0                       # Total Idle time Per DRAM Rank
system.mem_ctrl.dram.rank0.pwrStateTime::IDLE   2835076500                       # Time in different power states
system.mem_ctrl.dram.rank0.pwrStateTime::REF    305760000                       # Time in different power states
system.mem_ctrl.dram.rank0.pwrStateTime::SREF            0                       # Time in different power states
system.mem_ctrl.dram.rank0.pwrStateTime::PRE_PDN            0                       # Time in different power states
system.mem_ctrl.dram.rank0.pwrStateTime::ACT   6016157500                       # Time in different power states
system.mem_ctrl.dram.rank0.pwrStateTime::ACT_PDN            0                       # Time in different power states
system.mem_ctrl.dram.rank1.actEnergy         19299420                       # Energy for activate commands per rank (pJ)
system.mem_ctrl.dram.rank1.preEnergy         10254090                       # Energy for precharge commands per rank (pJ)
system.mem_ctrl.dram.rank1.readEnergy        39648420                       # Energy for read commands per rank (pJ)
system.mem_ctrl.dram.rank1.writeEnergy              0                       # Energy for write commands per rank (pJ)
system.mem_ctrl.dram.rank1.refreshEnergy 722816640.000000                       # Energy for refresh commands per rank (pJ)
system.mem_ctrl.dram.rank1.actBackEnergy   2783253000                       # Energy for active background per rank (pJ)
system.mem_ctrl.dram.rank1.preBackEnergy   1172494080                       # Energy for precharge background per rank (pJ)
system.mem_ctrl.dram.rank1.actPowerDownEnergy            0                       # Energy for active power-down per rank (pJ)
system.mem_ctrl.dram.rank1.prePowerDownEnergy            0                       # Energy for precharge power-down per rank (pJ)
system.mem_ctrl.dram.rank1.selfRefreshEnergy            0                       # Energy for self refresh per rank (pJ)
system.mem_ctrl.dram.rank1.totalEnergy     4747765650                       # Total energy per rank (pJ)
system.mem_ctrl.dram.rank1.averagePower    518.485176                       # Core power per rank (mW)
system.mem_ctrl.dram.rank1.totalIdleTime            0                       # Total Idle time Per DRAM Rank
system.mem_ctrl.dram.rank1.pwrStateTime::IDLE   3021584750                       # Time in different power states
system.mem_ctrl.dram.rank1.pwrStateTime::REF    305760000                       # Time in different power states
system.mem_ctrl.dram.rank1.pwrStateTime::SREF            0                       # Time in different power states
system.mem_ctrl.dram.rank1.pwrStateTime::PRE_PDN            0                       # Time in different power states
system.mem_ctrl.dram.rank1.pwrStateTime::ACT   5829649250                       # Time in different power states
system.mem_ctrl.dram.rank1.pwrStateTime::ACT_PDN            0                       # Time in different power states
system.mem_ctrl.power_state.pwrStateResidencyTicks::UNDEFINED   9156994000                       # Cumulative time (in ticks) in various power states
system.membus.trans_dist::ReadResp              10253                       # Transaction distribution
system.membus.trans_dist::WritebackDirty           19                       # Transaction distribution
system.membus.trans_dist::CleanEvict              252                       # Transaction distribution
system.membus.trans_dist::ReadExReq              1665                       # Transaction distribution
system.membus.trans_dist::ReadExResp             1665                       # Transaction distribution
system.membus.trans_dist::ReadSharedReq         10253                       # Transaction distribution
system.membus.pkt_count_system.l2cache.mem_side_port::system.mem_ctrl.port        24107                       # Packet count per connected requestor and responder (bytes)
system.membus.pkt_count_system.l2cache.mem_side_port::total        24107                       # Packet count per connected requestor and responder (bytes)
system.membus.pkt_count::total                  24107                       # Packet count per connected requestor and responder (bytes)
system.membus.pkt_size_system.l2cache.mem_side_port::system.mem_ctrl.port       763968                       # Cumulative packet size per connected requestor and responder (bytes)
system.membus.pkt_size_system.l2cache.mem_side_port::total       763968                       # Cumulative packet size per connected requestor and responder (bytes)
system.membus.pkt_size::total                  763968                       # Cumulative packet size per connected requestor and responder (bytes)
system.membus.snoops                                0                       # Total snoops (count)
system.membus.snoopTraffic                          0                       # Total snoop traffic (bytes)
system.membus.snoop_fanout::samples             11918                       # Request fanout histogram
system.membus.snoop_fanout::mean                    0                       # Request fanout histogram
system.membus.snoop_fanout::stdev                   0                       # Request fanout histogram
system.membus.snoop_fanout::underflows              0      0.00%      0.00% # Request fanout histogram
system.membus.snoop_fanout::0                   11918    100.00%    100.00% # Request fanout histogram
system.membus.snoop_fanout::1                       0      0.00%    100.00% # Request fanout histogram
system.membus.snoop_fanout::overflows               0      0.00%    100.00% # Request fanout histogram
system.membus.snoop_fanout::min_value               0                       # Request fanout histogram
system.membus.snoop_fanout::max_value               0                       # Request fanout histogram
system.membus.snoop_fanout::total               11918                       # Request fanout histogram
system.membus.power_state.pwrStateResidencyTicks::UNDEFINED   9156994000                       # Cumulative time (in ticks) in various power states
system.membus.reqLayer2.occupancy            12265000                       # Layer occupancy (ticks)
system.membus.reqLayer2.utilization               0.1                       # Layer utilization (%)
system.membus.respLayer0.occupancy           64134250                       # Layer occupancy (ticks)
system.membus.respLayer0.utilization              0.7                       # Layer utilization (%)

---------- End Simulation Statistics   ----------
