
---------- Begin Simulation Statistics ----------
final_tick                               127600219000                       # Number of ticks from beginning of simulation (restored from checkpoints and never reset)
host_inst_rate                                 373888                       # Simulator instruction rate (inst/s)
host_mem_usage                                 667212                       # Number of bytes of host memory used
host_op_rate                                   703240                       # Simulator op (including micro ops) rate (op/s)
host_seconds                                    58.07                       # Real time elapsed on the host
host_tick_rate                             2197324898                       # Simulator tick rate (ticks/s)
sim_freq                                 1000000000000                       # Frequency of simulated ticks
sim_insts                                    21711826                       # Number of instructions simulated
sim_ops                                      40837621                       # Number of ops (including micro ops) simulated
sim_seconds                                  0.127600                       # Number of seconds simulated
sim_ticks                                127600219000                       # Number of ticks simulated
system.cpu.Branches                           1689423                       # Number of branches fetched
system.cpu.committedInsts                    21711826                       # Number of instructions committed
system.cpu.committedOps                      40837621                       # Number of ops (including micro ops) committed
system.cpu.idle_fraction                     0.000000                       # Percentage of idle cycles
system.cpu.not_idle_fraction                 1.000000                       # Percentage of non-idle cycles
system.cpu.numCycles                        127600219                       # number of cpu cycles simulated
system.cpu.numWorkItemsCompleted                    0                       # number of work items this cpu completed
system.cpu.numWorkItemsStarted                      0                       # number of work items this cpu started
system.cpu.num_busy_cycles               127600218.999000                       # Number of busy cycles
system.cpu.num_cc_register_reads              9199759                       # number of times the CC registers were read
system.cpu.num_cc_register_writes             7310691                       # number of times the CC registers were written
system.cpu.num_conditional_control_insts      1625112                       # number of instructions that are conditional controls
system.cpu.num_fp_alu_accesses               28213433                       # Number of float alu accesses
system.cpu.num_fp_insts                      28213433                       # number of float instructions
system.cpu.num_fp_register_reads             42716802                       # number of times the floating registers were read
system.cpu.num_fp_register_writes            25063170                       # number of times the floating registers were written
system.cpu.num_func_calls                       38512                       # number of times a function call or return occured
system.cpu.num_idle_cycles                   0.001000                       # Number of idle cycles
system.cpu.num_int_alu_accesses              26037475                       # Number of integer alu accesses
system.cpu.num_int_insts                     26037475                       # number of integer instructions
system.cpu.num_int_register_reads            61734598                       # number of times the integer registers were read
system.cpu.num_int_register_writes           10537933                       # number of times the integer registers were written
system.cpu.num_load_insts                    11754397                       # Number of load instructions
system.cpu.num_mem_refs                      15047322                       # number of memory refs
system.cpu.num_store_insts                    3292925                       # Number of store instructions
system.cpu.num_vec_alu_accesses                     0                       # Number of vector alu accesses
system.cpu.num_vec_insts                            0                       # number of vector instructions
system.cpu.num_vec_register_reads                   0                       # number of times the vector registers were read
system.cpu.num_vec_register_writes                  0                       # number of times the vector registers were written
system.cpu.op_class::No_OpClass                 82071      0.20%      0.20% # Class of executed instruction
system.cpu.op_class::IntAlu                  13296231     32.56%     32.76% # Class of executed instruction
system.cpu.op_class::IntMult                    80135      0.20%     32.96% # Class of executed instruction
system.cpu.op_class::IntDiv                       280      0.00%     32.96% # Class of executed instruction
system.cpu.op_class::FloatAdd                  374599      0.92%     33.87% # Class of executed instruction
system.cpu.op_class::FloatCmp                       0      0.00%     33.87% # Class of executed instruction
system.cpu.op_class::FloatCvt                       0      0.00%     33.87% # Class of executed instruction
system.cpu.op_class::FloatMult                      0      0.00%     33.87% # Class of executed instruction
system.cpu.op_class::FloatMultAcc                   0      0.00%     33.87% # Class of executed instruction
system.cpu.op_class::FloatDiv                       0      0.00%     33.87% # Class of executed instruction
system.cpu.op_class::FloatMisc                      0      0.00%     33.87% # Class of executed instruction
system.cpu.op_class::FloatSqrt                      0      0.00%     33.87% # Class of executed instruction
system.cpu.op_class::SimdAdd                       24      0.00%     33.87% # Class of executed instruction
system.cpu.op_class::SimdAddAcc                     0      0.00%     33.87% # Class of executed instruction
system.cpu.op_class::SimdAlu                   398960      0.98%     34.85% # Class of executed instruction
system.cpu.op_class::SimdCmp                       24      0.00%     34.85% # Class of executed instruction
system.cpu.op_class::SimdCvt                      730      0.00%     34.85% # Class of executed instruction
system.cpu.op_class::SimdMisc                  147076      0.36%     35.21% # Class of executed instruction
system.cpu.op_class::SimdMult                       0      0.00%     35.21% # Class of executed instruction
system.cpu.op_class::SimdMultAcc                    0      0.00%     35.21% # Class of executed instruction
system.cpu.op_class::SimdShift                      0      0.00%     35.21% # Class of executed instruction
system.cpu.op_class::SimdShiftAcc                   0      0.00%     35.21% # Class of executed instruction
system.cpu.op_class::SimdDiv                        0      0.00%     35.21% # Class of executed instruction
system.cpu.op_class::SimdSqrt                       0      0.00%     35.21% # Class of executed instruction
system.cpu.op_class::SimdFloatAdd             8763369     21.46%     56.67% # Class of executed instruction
system.cpu.op_class::SimdFloatAlu                   0      0.00%     56.67% # Class of executed instruction
system.cpu.op_class::SimdFloatCmp                   0      0.00%     56.67% # Class of executed instruction
system.cpu.op_class::SimdFloatCvt              340277      0.83%     57.51% # Class of executed instruction
system.cpu.op_class::SimdFloatDiv                   6      0.00%     57.51% # Class of executed instruction
system.cpu.op_class::SimdFloatMisc                  0      0.00%     57.51% # Class of executed instruction
system.cpu.op_class::SimdFloatMult            2306615      5.65%     63.15% # Class of executed instruction
system.cpu.op_class::SimdFloatMultAcc               0      0.00%     63.15% # Class of executed instruction
system.cpu.op_class::SimdFloatSqrt                  4      0.00%     63.15% # Class of executed instruction
system.cpu.op_class::SimdReduceAdd                  0      0.00%     63.15% # Class of executed instruction
system.cpu.op_class::SimdReduceAlu                  0      0.00%     63.15% # Class of executed instruction
system.cpu.op_class::SimdReduceCmp                  0      0.00%     63.15% # Class of executed instruction
system.cpu.op_class::SimdFloatReduceAdd             0      0.00%     63.15% # Class of executed instruction
system.cpu.op_class::SimdFloatReduceCmp             0      0.00%     63.15% # Class of executed instruction
system.cpu.op_class::SimdAes                        0      0.00%     63.15% # Class of executed instruction
system.cpu.op_class::SimdAesMix                     0      0.00%     63.15% # Class of executed instruction
system.cpu.op_class::SimdSha1Hash                   0      0.00%     63.15% # Class of executed instruction
system.cpu.op_class::SimdSha1Hash2                  0      0.00%     63.15% # Class of executed instruction
system.cpu.op_class::SimdSha256Hash                 0      0.00%     63.15% # Class of executed instruction
system.cpu.op_class::SimdSha256Hash2                0      0.00%     63.15% # Class of executed instruction
system.cpu.op_class::SimdShaSigma2                  0      0.00%     63.15% # Class of executed instruction
system.cpu.op_class::SimdShaSigma3                  0      0.00%     63.15% # Class of executed instruction
system.cpu.op_class::SimdPredAlu                    0      0.00%     63.15% # Class of executed instruction
system.cpu.op_class::MemRead                  1222347      2.99%     66.15% # Class of executed instruction
system.cpu.op_class::MemWrite                  415949      1.02%     67.17% # Class of executed instruction
system.cpu.op_class::FloatMemRead            10532050     25.79%     92.96% # Class of executed instruction
system.cpu.op_class::FloatMemWrite            2876976      7.04%    100.00% # Class of executed instruction
system.cpu.op_class::IprAccess                      0      0.00%    100.00% # Class of executed instruction
system.cpu.op_class::InstPrefetch                   0      0.00%    100.00% # Class of executed instruction
system.cpu.op_class::total                   40837723                       # Class of executed instruction
system.cpu.workload.numSyscalls                    77                       # Number of system calls
system.l2bus.snoop_filter.hit_multi_requests            0                       # Number of requests hitting in the snoop filter with multiple (>1) holders of the requested data.
system.l2bus.snoop_filter.hit_multi_snoops            0                       # Number of snoops hitting in the snoop filter with multiple (>1) holders of the requested data.
system.l2bus.snoop_filter.hit_single_requests       399655                       # Number of requests hitting in the snoop filter with a single holder of the requested data.
system.l2bus.snoop_filter.hit_single_snoops         5686                       # Number of snoops hitting in the snoop filter with a single holder of the requested data.
system.l2bus.snoop_filter.tot_requests         800590                       # Total number of requests made to the snoop filter.
system.l2bus.snoop_filter.tot_snoops             5686                       # Total number of snoops made to the snoop filter.
system.membus.snoop_filter.hit_multi_requests            0                       # Number of requests hitting in the snoop filter with multiple (>1) holders of the requested data.
system.membus.snoop_filter.hit_multi_snoops            0                       # Number of snoops hitting in the snoop filter with multiple (>1) holders of the requested data.
system.membus.snoop_filter.hit_single_requests       344680                       # Number of requests hitting in the snoop filter with a single holder of the requested data.
system.membus.snoop_filter.hit_single_snoops            0                       # Number of snoops hitting in the snoop filter with a single holder of the requested data.
system.membus.snoop_filter.tot_requests        693470                       # Total number of requests made to the snoop filter.
system.membus.snoop_filter.tot_snoops               0                       # Total number of snoops made to the snoop filter.
system.clk_domain.clock                          1000                       # Clock period in ticks
system.clk_domain.voltage_domain.voltage            1                       # Voltage in Volts
system.cpu.dcache.demand_hits::.cpu.data     14655216                       # number of demand (read+write) hits
system.cpu.dcache.demand_hits::total         14655216                       # number of demand (read+write) hits
system.cpu.dcache.overall_hits::.cpu.data     14655216                       # number of overall hits
system.cpu.dcache.overall_hits::total        14655216                       # number of overall hits
system.cpu.dcache.demand_misses::.cpu.data       392175                       # number of demand (read+write) misses
system.cpu.dcache.demand_misses::total         392175                       # number of demand (read+write) misses
system.cpu.dcache.overall_misses::.cpu.data       392175                       # number of overall misses
system.cpu.dcache.overall_misses::total        392175                       # number of overall misses
system.cpu.dcache.demand_miss_latency::.cpu.data  36617833000                       # number of demand (read+write) miss cycles
system.cpu.dcache.demand_miss_latency::total  36617833000                       # number of demand (read+write) miss cycles
system.cpu.dcache.overall_miss_latency::.cpu.data  36617833000                       # number of overall miss cycles
system.cpu.dcache.overall_miss_latency::total  36617833000                       # number of overall miss cycles
system.cpu.dcache.demand_accesses::.cpu.data     15047391                       # number of demand (read+write) accesses
system.cpu.dcache.demand_accesses::total     15047391                       # number of demand (read+write) accesses
system.cpu.dcache.overall_accesses::.cpu.data     15047391                       # number of overall (read+write) accesses
system.cpu.dcache.overall_accesses::total     15047391                       # number of overall (read+write) accesses
system.cpu.dcache.demand_miss_rate::.cpu.data     0.026063                       # miss rate for demand accesses
system.cpu.dcache.demand_miss_rate::total     0.026063                       # miss rate for demand accesses
system.cpu.dcache.overall_miss_rate::.cpu.data     0.026063                       # miss rate for overall accesses
system.cpu.dcache.overall_miss_rate::total     0.026063                       # miss rate for overall accesses
system.cpu.dcache.demand_avg_miss_latency::.cpu.data 93371.155734                       # average overall miss latency
system.cpu.dcache.demand_avg_miss_latency::total 93371.155734                       # average overall miss latency
system.cpu.dcache.overall_avg_miss_latency::.cpu.data 93371.155734                       # average overall miss latency
system.cpu.dcache.overall_avg_miss_latency::total 93371.155734                       # average overall miss latency
system.cpu.dcache.blocked_cycles::no_mshrs            0                       # number of cycles access was blocked
system.cpu.dcache.blocked_cycles::no_targets            0                       # number of cycles access was blocked
system.cpu.dcache.blocked::no_mshrs                 0                       # number of cycles access was blocked
system.cpu.dcache.blocked::no_targets               0                       # number of cycles access was blocked
system.cpu.dcache.avg_blocked_cycles::no_mshrs          nan                       # average number of cycles each access was blocked
system.cpu.dcache.avg_blocked_cycles::no_targets          nan                       # average number of cycles each access was blocked
system.cpu.dcache.writebacks::.writebacks       214669                       # number of writebacks
system.cpu.dcache.writebacks::total            214669                       # number of writebacks
system.cpu.dcache.demand_mshr_misses::.cpu.data       392175                       # number of demand (read+write) MSHR misses
system.cpu.dcache.demand_mshr_misses::total       392175                       # number of demand (read+write) MSHR misses
system.cpu.dcache.overall_mshr_misses::.cpu.data       392175                       # number of overall MSHR misses
system.cpu.dcache.overall_mshr_misses::total       392175                       # number of overall MSHR misses
system.cpu.dcache.demand_mshr_miss_latency::.cpu.data  35833483000                       # number of demand (read+write) MSHR miss cycles
system.cpu.dcache.demand_mshr_miss_latency::total  35833483000                       # number of demand (read+write) MSHR miss cycles
system.cpu.dcache.overall_mshr_miss_latency::.cpu.data  35833483000                       # number of overall MSHR miss cycles
system.cpu.dcache.overall_mshr_miss_latency::total  35833483000                       # number of overall MSHR miss cycles
system.cpu.dcache.demand_mshr_miss_rate::.cpu.data     0.026063                       # mshr miss rate for demand accesses
system.cpu.dcache.demand_mshr_miss_rate::total     0.026063                       # mshr miss rate for demand accesses
system.cpu.dcache.overall_mshr_miss_rate::.cpu.data     0.026063                       # mshr miss rate for overall accesses
system.cpu.dcache.overall_mshr_miss_rate::total     0.026063                       # mshr miss rate for overall accesses
system.cpu.dcache.demand_avg_mshr_miss_latency::.cpu.data 91371.155734                       # average overall mshr miss latency
system.cpu.dcache.demand_avg_mshr_miss_latency::total 91371.155734                       # average overall mshr miss latency
system.cpu.dcache.overall_avg_mshr_miss_latency::.cpu.data 91371.155734                       # average overall mshr miss latency
system.cpu.dcache.overall_avg_mshr_miss_latency::total 91371.155734                       # average overall mshr miss latency
system.cpu.dcache.replacements                 391151                       # number of replacements
system.cpu.dcache.ReadReq_hits::.cpu.data     11481427                       # number of ReadReq hits
system.cpu.dcache.ReadReq_hits::total        11481427                       # number of ReadReq hits
system.cpu.dcache.ReadReq_misses::.cpu.data       273021                       # number of ReadReq misses
system.cpu.dcache.ReadReq_misses::total        273021                       # number of ReadReq misses
system.cpu.dcache.ReadReq_miss_latency::.cpu.data  24885092000                       # number of ReadReq miss cycles
system.cpu.dcache.ReadReq_miss_latency::total  24885092000                       # number of ReadReq miss cycles
system.cpu.dcache.ReadReq_accesses::.cpu.data     11754448                       # number of ReadReq accesses(hits+misses)
system.cpu.dcache.ReadReq_accesses::total     11754448                       # number of ReadReq accesses(hits+misses)
system.cpu.dcache.ReadReq_miss_rate::.cpu.data     0.023227                       # miss rate for ReadReq accesses
system.cpu.dcache.ReadReq_miss_rate::total     0.023227                       # miss rate for ReadReq accesses
system.cpu.dcache.ReadReq_avg_miss_latency::.cpu.data 91147.171829                       # average ReadReq miss latency
system.cpu.dcache.ReadReq_avg_miss_latency::total 91147.171829                       # average ReadReq miss latency
system.cpu.dcache.ReadReq_mshr_misses::.cpu.data       273021                       # number of ReadReq MSHR misses
system.cpu.dcache.ReadReq_mshr_misses::total       273021                       # number of ReadReq MSHR misses
system.cpu.dcache.ReadReq_mshr_miss_latency::.cpu.data  24339050000                       # number of ReadReq MSHR miss cycles
system.cpu.dcache.ReadReq_mshr_miss_latency::total  24339050000                       # number of ReadReq MSHR miss cycles
system.cpu.dcache.ReadReq_mshr_miss_rate::.cpu.data     0.023227                       # mshr miss rate for ReadReq accesses
system.cpu.dcache.ReadReq_mshr_miss_rate::total     0.023227                       # mshr miss rate for ReadReq accesses
system.cpu.dcache.ReadReq_avg_mshr_miss_latency::.cpu.data 89147.171829                       # average ReadReq mshr miss latency
system.cpu.dcache.ReadReq_avg_mshr_miss_latency::total 89147.171829                       # average ReadReq mshr miss latency
system.cpu.dcache.WriteReq_hits::.cpu.data      3173789                       # number of WriteReq hits
system.cpu.dcache.WriteReq_hits::total        3173789                       # number of WriteReq hits
system.cpu.dcache.WriteReq_misses::.cpu.data       119154                       # number of WriteReq misses
system.cpu.dcache.WriteReq_misses::total       119154                       # number of WriteReq misses
system.cpu.dcache.WriteReq_miss_latency::.cpu.data  11732741000                       # number of WriteReq miss cycles
system.cpu.dcache.WriteReq_miss_latency::total  11732741000                       # number of WriteReq miss cycles
system.cpu.dcache.WriteReq_accesses::.cpu.data      3292943                       # number of WriteReq accesses(hits+misses)
system.cpu.dcache.WriteReq_accesses::total      3292943                       # number of WriteReq accesses(hits+misses)
system.cpu.dcache.WriteReq_miss_rate::.cpu.data     0.036185                       # miss rate for WriteReq accesses
system.cpu.dcache.WriteReq_miss_rate::total     0.036185                       # miss rate for WriteReq accesses
system.cpu.dcache.WriteReq_avg_miss_latency::.cpu.data 98467.034258                       # average WriteReq miss latency
system.cpu.dcache.WriteReq_avg_miss_latency::total 98467.034258                       # average WriteReq miss latency
system.cpu.dcache.WriteReq_mshr_misses::.cpu.data       119154                       # number of WriteReq MSHR misses
system.cpu.dcache.WriteReq_mshr_misses::total       119154                       # number of WriteReq MSHR misses
system.cpu.dcache.WriteReq_mshr_miss_latency::.cpu.data  11494433000                       # number of WriteReq MSHR miss cycles
system.cpu.dcache.WriteReq_mshr_miss_latency::total  11494433000                       # number of WriteReq MSHR miss cycles
system.cpu.dcache.WriteReq_mshr_miss_rate::.cpu.data     0.036185                       # mshr miss rate for WriteReq accesses
system.cpu.dcache.WriteReq_mshr_miss_rate::total     0.036185                       # mshr miss rate for WriteReq accesses
system.cpu.dcache.WriteReq_avg_mshr_miss_latency::.cpu.data 96467.034258                       # average WriteReq mshr miss latency
system.cpu.dcache.WriteReq_avg_mshr_miss_latency::total 96467.034258                       # average WriteReq mshr miss latency
system.cpu.dcache.power_state.pwrStateResidencyTicks::UNDEFINED 127600219000                       # Cumulative time (in ticks) in various power states
system.cpu.dcache.tags.tagsinuse          1022.194332                       # Cycle average of tags in use
system.cpu.dcache.tags.total_refs            15047391                       # Total number of references to valid blocks.
system.cpu.dcache.tags.sampled_refs            392175                       # Sample count of references to valid blocks.
system.cpu.dcache.tags.avg_refs             38.369072                       # Average number of references to valid blocks.
system.cpu.dcache.tags.warmup_cycle            224000                       # Cycle when the warmup percentage was hit.
system.cpu.dcache.tags.occ_blocks::.cpu.data  1022.194332                       # Average occupied blocks per requestor
system.cpu.dcache.tags.occ_percent::.cpu.data     0.998237                       # Average percentage of cache occupancy
system.cpu.dcache.tags.occ_percent::total     0.998237                       # Average percentage of cache occupancy
system.cpu.dcache.tags.occ_task_id_blocks::1024         1024                       # Occupied blocks per task id
system.cpu.dcache.tags.age_task_id_blocks_1024::0           27                       # Occupied blocks per task id
system.cpu.dcache.tags.age_task_id_blocks_1024::1          101                       # Occupied blocks per task id
system.cpu.dcache.tags.age_task_id_blocks_1024::2          895                       # Occupied blocks per task id
system.cpu.dcache.tags.age_task_id_blocks_1024::3            1                       # Occupied blocks per task id
system.cpu.dcache.tags.occ_task_id_percent::1024            1                       # Percentage of cache occupancy per task id
system.cpu.dcache.tags.tag_accesses          30486957                       # Number of tag accesses
system.cpu.dcache.tags.data_accesses         30486957                       # Number of data accesses
system.cpu.dcache.tags.power_state.pwrStateResidencyTicks::UNDEFINED 127600219000                       # Cumulative time (in ticks) in various power states
system.cpu.dtb.rdAccesses                    11754449                       # TLB accesses on read requests
system.cpu.dtb.wrAccesses                     3292967                       # TLB accesses on write requests
system.cpu.dtb.rdMisses                          5368                       # TLB misses on read requests
system.cpu.dtb.wrMisses                          1839                       # TLB misses on write requests
system.cpu.dtb.walker.power_state.pwrStateResidencyTicks::UNDEFINED 127600219000                       # Cumulative time (in ticks) in various power states
system.cpu.icache.demand_hits::.cpu.inst     30572416                       # number of demand (read+write) hits
system.cpu.icache.demand_hits::total         30572416                       # number of demand (read+write) hits
system.cpu.icache.overall_hits::.cpu.inst     30572416                       # number of overall hits
system.cpu.icache.overall_hits::total        30572416                       # number of overall hits
system.cpu.icache.demand_misses::.cpu.inst         8760                       # number of demand (read+write) misses
system.cpu.icache.demand_misses::total           8760                       # number of demand (read+write) misses
system.cpu.icache.overall_misses::.cpu.inst         8760                       # number of overall misses
system.cpu.icache.overall_misses::total          8760                       # number of overall misses
system.cpu.icache.demand_miss_latency::.cpu.inst    527439000                       # number of demand (read+write) miss cycles
system.cpu.icache.demand_miss_latency::total    527439000                       # number of demand (read+write) miss cycles
system.cpu.icache.overall_miss_latency::.cpu.inst    527439000                       # number of overall miss cycles
system.cpu.icache.overall_miss_latency::total    527439000                       # number of overall miss cycles
system.cpu.icache.demand_accesses::.cpu.inst     30581176                       # number of demand (read+write) accesses
system.cpu.icache.demand_accesses::total     30581176                       # number of demand (read+write) accesses
system.cpu.icache.overall_accesses::.cpu.inst     30581176                       # number of overall (read+write) accesses
system.cpu.icache.overall_accesses::total     30581176                       # number of overall (read+write) accesses
system.cpu.icache.demand_miss_rate::.cpu.inst     0.000286                       # miss rate for demand accesses
system.cpu.icache.demand_miss_rate::total     0.000286                       # miss rate for demand accesses
system.cpu.icache.overall_miss_rate::.cpu.inst     0.000286                       # miss rate for overall accesses
system.cpu.icache.overall_miss_rate::total     0.000286                       # miss rate for overall accesses
system.cpu.icache.demand_avg_miss_latency::.cpu.inst 60209.931507                       # average overall miss latency
system.cpu.icache.demand_avg_miss_latency::total 60209.931507                       # average overall miss latency
system.cpu.icache.overall_avg_miss_latency::.cpu.inst 60209.931507                       # average overall miss latency
system.cpu.icache.overall_avg_miss_latency::total 60209.931507                       # average overall miss latency
system.cpu.icache.blocked_cycles::no_mshrs            0                       # number of cycles access was blocked
system.cpu.icache.blocked_cycles::no_targets            0                       # number of cycles access was blocked
system.cpu.icache.blocked::no_mshrs                 0                       # number of cycles access was blocked
system.cpu.icache.blocked::no_targets               0                       # number of cycles access was blocked
system.cpu.icache.avg_blocked_cycles::no_mshrs          nan                       # average number of cycles each access was blocked
system.cpu.icache.avg_blocked_cycles::no_targets          nan                       # average number of cycles each access was blocked
system.cpu.icache.demand_mshr_misses::.cpu.inst         8760                       # number of demand (read+write) MSHR misses
system.cpu.icache.demand_mshr_misses::total         8760                       # number of demand (read+write) MSHR misses
system.cpu.icache.overall_mshr_misses::.cpu.inst         8760                       # number of overall MSHR misses
system.cpu.icache.overall_mshr_misses::total         8760                       # number of overall MSHR misses
system.cpu.icache.demand_mshr_miss_latency::.cpu.inst    509919000                       # number of demand (read+write) MSHR miss cycles
system.cpu.icache.demand_mshr_miss_latency::total    509919000                       # number of demand (read+write) MSHR miss cycles
system.cpu.icache.overall_mshr_miss_latency::.cpu.inst    509919000                       # number of overall MSHR miss cycles
system.cpu.icache.overall_mshr_miss_latency::total    509919000                       # number of overall MSHR miss cycles
system.cpu.icache.demand_mshr_miss_rate::.cpu.inst     0.000286                       # mshr miss rate for demand accesses
system.cpu.icache.demand_mshr_miss_rate::total     0.000286                       # mshr miss rate for demand accesses
system.cpu.icache.overall_mshr_miss_rate::.cpu.inst     0.000286                       # mshr miss rate for overall accesses
system.cpu.icache.overall_mshr_miss_rate::total     0.000286                       # mshr miss rate for overall accesses
system.cpu.icache.demand_avg_mshr_miss_latency::.cpu.inst 58209.931507                       # average overall mshr miss latency
system.cpu.icache.demand_avg_mshr_miss_latency::total 58209.931507                       # average overall mshr miss latency
system.cpu.icache.overall_avg_mshr_miss_latency::.cpu.inst 58209.931507                       # average overall mshr miss latency
system.cpu.icache.overall_avg_mshr_miss_latency::total 58209.931507                       # average overall mshr miss latency
system.cpu.icache.replacements                   8504                       # number of replacements
system.cpu.icache.ReadReq_hits::.cpu.inst     30572416                       # number of ReadReq hits
system.cpu.icache.ReadReq_hits::total        30572416                       # number of ReadReq hits
system.cpu.icache.ReadReq_misses::.cpu.inst         8760                       # number of ReadReq misses
system.cpu.icache.ReadReq_misses::total          8760                       # number of ReadReq misses
system.cpu.icache.ReadReq_miss_latency::.cpu.inst    527439000                       # number of ReadReq miss cycles
system.cpu.icache.ReadReq_miss_latency::total    527439000                       # number of ReadReq miss cycles
system.cpu.icache.ReadReq_accesses::.cpu.inst     30581176                       # number of ReadReq accesses(hits+misses)
system.cpu.icache.ReadReq_accesses::total     30581176                       # number of ReadReq accesses(hits+misses)
system.cpu.icache.ReadReq_miss_rate::.cpu.inst     0.000286                       # miss rate for ReadReq accesses
system.cpu.icache.ReadReq_miss_rate::total     0.000286                       # miss rate for ReadReq accesses
system.cpu.icache.ReadReq_avg_miss_latency::.cpu.inst 60209.931507                       # average ReadReq miss latency
system.cpu.icache.ReadReq_avg_miss_latency::total 60209.931507                       # average ReadReq miss latency
system.cpu.icache.ReadReq_mshr_misses::.cpu.inst         8760                       # number of ReadReq MSHR misses
system.cpu.icache.ReadReq_mshr_misses::total         8760                       # number of ReadReq MSHR misses
system.cpu.icache.ReadReq_mshr_miss_latency::.cpu.inst    509919000                       # number of ReadReq MSHR miss cycles
system.cpu.icache.ReadReq_mshr_miss_latency::total    509919000                       # number of ReadReq MSHR miss cycles
system.cpu.icache.ReadReq_mshr_miss_rate::.cpu.inst     0.000286                       # mshr miss rate for ReadReq accesses
system.cpu.icache.ReadReq_mshr_miss_rate::total     0.000286                       # mshr miss rate for ReadReq accesses
system.cpu.icache.ReadReq_avg_mshr_miss_latency::.cpu.inst 58209.931507                       # average ReadReq mshr miss latency
system.cpu.icache.ReadReq_avg_mshr_miss_latency::total 58209.931507                       # average ReadReq mshr miss latency
system.cpu.icache.power_state.pwrStateResidencyTicks::UNDEFINED 127600219000                       # Cumulative time (in ticks) in various power states
system.cpu.icache.tags.tagsinuse           255.897409                       # Cycle average of tags in use
system.cpu.icache.tags.total_refs            30581176                       # Total number of references to valid blocks.
system.cpu.icache.tags.sampled_refs              8760                       # Sample count of references to valid blocks.
system.cpu.icache.tags.avg_refs           3491.001826                       # Average number of references to valid blocks.
system.cpu.icache.tags.warmup_cycle            107000                       # Cycle when the warmup percentage was hit.
system.cpu.icache.tags.occ_blocks::.cpu.inst   255.897409                       # Average occupied blocks per requestor
system.cpu.icache.tags.occ_percent::.cpu.inst     0.999599                       # Average percentage of cache occupancy
system.cpu.icache.tags.occ_percent::total     0.999599                       # Average percentage of cache occupancy
system.cpu.icache.tags.occ_task_id_blocks::1024          256                       # Occupied blocks per task id
system.cpu.icache.tags.age_task_id_blocks_1024::0           33                       # Occupied blocks per task id
system.cpu.icache.tags.age_task_id_blocks_1024::1          109                       # Occupied blocks per task id
system.cpu.icache.tags.age_task_id_blocks_1024::2          113                       # Occupied blocks per task id
system.cpu.icache.tags.age_task_id_blocks_1024::4            1                       # Occupied blocks per task id
system.cpu.icache.tags.occ_task_id_percent::1024            1                       # Percentage of cache occupancy per task id
system.cpu.icache.tags.tag_accesses          61171112                       # Number of tag accesses
system.cpu.icache.tags.data_accesses         61171112                       # Number of data accesses
system.cpu.icache.tags.power_state.pwrStateResidencyTicks::UNDEFINED 127600219000                       # Cumulative time (in ticks) in various power states
system.cpu.interrupts.clk_domain.clock          16000                       # Clock period in ticks
system.cpu.itb.rdAccesses                           0                       # TLB accesses on read requests
system.cpu.itb.wrAccesses                    30581176                       # TLB accesses on write requests
system.cpu.itb.rdMisses                             0                       # TLB misses on read requests
system.cpu.itb.wrMisses                           132                       # TLB misses on write requests
system.cpu.itb.walker.power_state.pwrStateResidencyTicks::UNDEFINED 127600219000                       # Cumulative time (in ticks) in various power states
system.cpu.power_state.pwrStateResidencyTicks::ON 127600219000                       # Cumulative time (in ticks) in various power states
system.cpu.thread_0.numInsts                        0                       # Number of Instructions committed
system.cpu.thread_0.numOps                          0                       # Number of Ops committed
system.cpu.thread_0.numMemRefs                      0                       # Number of Memory References
system.l2bus.trans_dist::ReadResp              281781                       # Transaction distribution
system.l2bus.trans_dist::WritebackDirty        386718                       # Transaction distribution
system.l2bus.trans_dist::CleanEvict            359730                       # Transaction distribution
system.l2bus.trans_dist::ReadExReq             119154                       # Transaction distribution
system.l2bus.trans_dist::ReadExResp            119154                       # Transaction distribution
system.l2bus.trans_dist::ReadSharedReq         281781                       # Transaction distribution
system.l2bus.pkt_count_system.cpu.icache.mem_side_port::system.l2cache.cpu_side_port        26024                       # Packet count per connected requestor and responder (bytes)
system.l2bus.pkt_count_system.cpu.dcache.mem_side_port::system.l2cache.cpu_side_port      1175501                       # Packet count per connected requestor and responder (bytes)
system.l2bus.pkt_count::total                 1201525                       # Packet count per connected requestor and responder (bytes)
system.l2bus.pkt_size_system.cpu.icache.mem_side_port::system.l2cache.cpu_side_port       560640                       # Cumulative packet size per connected requestor and responder (bytes)
system.l2bus.pkt_size_system.cpu.dcache.mem_side_port::system.l2cache.cpu_side_port     38838016                       # Cumulative packet size per connected requestor and responder (bytes)
system.l2bus.pkt_size::total                 39398656                       # Cumulative packet size per connected requestor and responder (bytes)
system.l2bus.snoops                            346793                       # Total snoops (count)
system.l2bus.snoopTraffic                    11011136                       # Total snoop traffic (bytes)
system.l2bus.snoop_fanout::samples             747728                       # Request fanout histogram
system.l2bus.snoop_fanout::mean              0.007604                       # Request fanout histogram
system.l2bus.snoop_fanout::stdev             0.086871                       # Request fanout histogram
system.l2bus.snoop_fanout::underflows               0      0.00%      0.00% # Request fanout histogram
system.l2bus.snoop_fanout::0                   742042     99.24%     99.24% # Request fanout histogram
system.l2bus.snoop_fanout::1                     5686      0.76%    100.00% # Request fanout histogram
system.l2bus.snoop_fanout::2                        0      0.00%    100.00% # Request fanout histogram
system.l2bus.snoop_fanout::overflows                0      0.00%    100.00% # Request fanout histogram
system.l2bus.snoop_fanout::min_value                0                       # Request fanout histogram
system.l2bus.snoop_fanout::max_value                1                       # Request fanout histogram
system.l2bus.snoop_fanout::total               747728                       # Request fanout histogram
system.l2bus.power_state.pwrStateResidencyTicks::UNDEFINED 127600219000                       # Cumulative time (in ticks) in various power states
system.l2bus.reqLayer0.occupancy           1229928000                       # Layer occupancy (ticks)
system.l2bus.reqLayer0.utilization                1.0                       # Layer utilization (%)
system.l2bus.respLayer0.occupancy            26280000                       # Layer occupancy (ticks)
system.l2bus.respLayer0.utilization               0.0                       # Layer utilization (%)
system.l2bus.respLayer1.occupancy          1176525000                       # Layer occupancy (ticks)
system.l2bus.respLayer1.utilization               0.9                       # Layer utilization (%)
system.l2cache.demand_hits::.cpu.inst            4971                       # number of demand (read+write) hits
system.l2cache.demand_hits::.cpu.data           47174                       # number of demand (read+write) hits
system.l2cache.demand_hits::total               52145                       # number of demand (read+write) hits
system.l2cache.overall_hits::.cpu.inst           4971                       # number of overall hits
system.l2cache.overall_hits::.cpu.data          47174                       # number of overall hits
system.l2cache.overall_hits::total              52145                       # number of overall hits
system.l2cache.demand_misses::.cpu.inst          3789                       # number of demand (read+write) misses
system.l2cache.demand_misses::.cpu.data        345001                       # number of demand (read+write) misses
system.l2cache.demand_misses::total            348790                       # number of demand (read+write) misses
system.l2cache.overall_misses::.cpu.inst         3789                       # number of overall misses
system.l2cache.overall_misses::.cpu.data       345001                       # number of overall misses
system.l2cache.overall_misses::total           348790                       # number of overall misses
system.l2cache.demand_miss_latency::.cpu.inst    379217000                       # number of demand (read+write) miss cycles
system.l2cache.demand_miss_latency::.cpu.data  33665415000                       # number of demand (read+write) miss cycles
system.l2cache.demand_miss_latency::total  34044632000                       # number of demand (read+write) miss cycles
system.l2cache.overall_miss_latency::.cpu.inst    379217000                       # number of overall miss cycles
system.l2cache.overall_miss_latency::.cpu.data  33665415000                       # number of overall miss cycles
system.l2cache.overall_miss_latency::total  34044632000                       # number of overall miss cycles
system.l2cache.demand_accesses::.cpu.inst         8760                       # number of demand (read+write) accesses
system.l2cache.demand_accesses::.cpu.data       392175                       # number of demand (read+write) accesses
system.l2cache.demand_accesses::total          400935                       # number of demand (read+write) accesses
system.l2cache.overall_accesses::.cpu.inst         8760                       # number of overall (read+write) accesses
system.l2cache.overall_accesses::.cpu.data       392175                       # number of overall (read+write) accesses
system.l2cache.overall_accesses::total         400935                       # number of overall (read+write) accesses
system.l2cache.demand_miss_rate::.cpu.inst     0.432534                       # miss rate for demand accesses
system.l2cache.demand_miss_rate::.cpu.data     0.879712                       # miss rate for demand accesses
system.l2cache.demand_miss_rate::total       0.869942                       # miss rate for demand accesses
system.l2cache.overall_miss_rate::.cpu.inst     0.432534                       # miss rate for overall accesses
system.l2cache.overall_miss_rate::.cpu.data     0.879712                       # miss rate for overall accesses
system.l2cache.overall_miss_rate::total      0.869942                       # miss rate for overall accesses
system.l2cache.demand_avg_miss_latency::.cpu.inst 100083.663236                       # average overall miss latency
system.l2cache.demand_avg_miss_latency::.cpu.data 97580.630201                       # average overall miss latency
system.l2cache.demand_avg_miss_latency::total 97607.821325                       # average overall miss latency
system.l2cache.overall_avg_miss_latency::.cpu.inst 100083.663236                       # average overall miss latency
system.l2cache.overall_avg_miss_latency::.cpu.data 97580.630201                       # average overall miss latency
system.l2cache.overall_avg_miss_latency::total 97607.821325                       # average overall miss latency
system.l2cache.blocked_cycles::no_mshrs             0                       # number of cycles access was blocked
system.l2cache.blocked_cycles::no_targets            0                       # number of cycles access was blocked
system.l2cache.blocked::no_mshrs                    0                       # number of cycles access was blocked
system.l2cache.blocked::no_targets                  0                       # number of cycles access was blocked
system.l2cache.avg_blocked_cycles::no_mshrs          nan                       # average number of cycles each access was blocked
system.l2cache.avg_blocked_cycles::no_targets          nan                       # average number of cycles each access was blocked
system.l2cache.writebacks::.writebacks         172049                       # number of writebacks
system.l2cache.writebacks::total               172049                       # number of writebacks
system.l2cache.demand_mshr_misses::.cpu.inst         3789                       # number of demand (read+write) MSHR misses
system.l2cache.demand_mshr_misses::.cpu.data       345001                       # number of demand (read+write) MSHR misses
system.l2cache.demand_mshr_misses::total       348790                       # number of demand (read+write) MSHR misses
system.l2cache.overall_mshr_misses::.cpu.inst         3789                       # number of overall MSHR misses
system.l2cache.overall_mshr_misses::.cpu.data       345001                       # number of overall MSHR misses
system.l2cache.overall_mshr_misses::total       348790                       # number of overall MSHR misses
system.l2cache.demand_mshr_miss_latency::.cpu.inst    303437000                       # number of demand (read+write) MSHR miss cycles
system.l2cache.demand_mshr_miss_latency::.cpu.data  26765395000                       # number of demand (read+write) MSHR miss cycles
system.l2cache.demand_mshr_miss_latency::total  27068832000                       # number of demand (read+write) MSHR miss cycles
system.l2cache.overall_mshr_miss_latency::.cpu.inst    303437000                       # number of overall MSHR miss cycles
system.l2cache.overall_mshr_miss_latency::.cpu.data  26765395000                       # number of overall MSHR miss cycles
system.l2cache.overall_mshr_miss_latency::total  27068832000                       # number of overall MSHR miss cycles
system.l2cache.demand_mshr_miss_rate::.cpu.inst     0.432534                       # mshr miss rate for demand accesses
system.l2cache.demand_mshr_miss_rate::.cpu.data     0.879712                       # mshr miss rate for demand accesses
system.l2cache.demand_mshr_miss_rate::total     0.869942                       # mshr miss rate for demand accesses
system.l2cache.overall_mshr_miss_rate::.cpu.inst     0.432534                       # mshr miss rate for overall accesses
system.l2cache.overall_mshr_miss_rate::.cpu.data     0.879712                       # mshr miss rate for overall accesses
system.l2cache.overall_mshr_miss_rate::total     0.869942                       # mshr miss rate for overall accesses
system.l2cache.demand_avg_mshr_miss_latency::.cpu.inst 80083.663236                       # average overall mshr miss latency
system.l2cache.demand_avg_mshr_miss_latency::.cpu.data 77580.630201                       # average overall mshr miss latency
system.l2cache.demand_avg_mshr_miss_latency::total 77607.821325                       # average overall mshr miss latency
system.l2cache.overall_avg_mshr_miss_latency::.cpu.inst 80083.663236                       # average overall mshr miss latency
system.l2cache.overall_avg_mshr_miss_latency::.cpu.data 77580.630201                       # average overall mshr miss latency
system.l2cache.overall_avg_mshr_miss_latency::total 77607.821325                       # average overall mshr miss latency
system.l2cache.replacements                    343257                       # number of replacements
system.l2cache.WritebackDirty_hits::.writebacks       214650                       # number of WritebackDirty hits
system.l2cache.WritebackDirty_hits::total       214650                       # number of WritebackDirty hits
system.l2cache.WritebackDirty_misses::.writebacks           19                       # number of WritebackDirty misses
system.l2cache.WritebackDirty_misses::total           19                       # number of WritebackDirty misses
system.l2cache.WritebackDirty_accesses::.writebacks       214669                       # number of WritebackDirty accesses(hits+misses)
system.l2cache.WritebackDirty_accesses::total       214669                       # number of WritebackDirty accesses(hits+misses)
system.l2cache.WritebackDirty_miss_rate::.writebacks     0.000089                       # miss rate for WritebackDirty accesses
system.l2cache.WritebackDirty_miss_rate::total     0.000089                       # miss rate for WritebackDirty accesses
system.l2cache.WritebackDirty_mshr_misses::.writebacks           19                       # number of WritebackDirty MSHR misses
system.l2cache.WritebackDirty_mshr_misses::total           19                       # number of WritebackDirty MSHR misses
system.l2cache.WritebackDirty_mshr_miss_rate::.writebacks     0.000089                       # mshr miss rate for WritebackDirty accesses
system.l2cache.WritebackDirty_mshr_miss_rate::total     0.000089                       # mshr miss rate for WritebackDirty accesses
system.l2cache.CleanEvict_mshr_misses::.writebacks         3554                       # number of CleanEvict MSHR misses
system.l2cache.CleanEvict_mshr_misses::total         3554                       # number of CleanEvict MSHR misses
system.l2cache.CleanEvict_mshr_miss_rate::.writebacks          inf                       # mshr miss rate for CleanEvict accesses
system.l2cache.CleanEvict_mshr_miss_rate::total          inf                       # mshr miss rate for CleanEvict accesses
system.l2cache.ReadExReq_hits::.cpu.data         7259                       # number of ReadExReq hits
system.l2cache.ReadExReq_hits::total             7259                       # number of ReadExReq hits
system.l2cache.ReadExReq_misses::.cpu.data       111895                       # number of ReadExReq misses
system.l2cache.ReadExReq_misses::total         111895                       # number of ReadExReq misses
system.l2cache.ReadExReq_miss_latency::.cpu.data  10984513000                       # number of ReadExReq miss cycles
system.l2cache.ReadExReq_miss_latency::total  10984513000                       # number of ReadExReq miss cycles
system.l2cache.ReadExReq_accesses::.cpu.data       119154                       # number of ReadExReq accesses(hits+misses)
system.l2cache.ReadExReq_accesses::total       119154                       # number of ReadExReq accesses(hits+misses)
system.l2cache.ReadExReq_miss_rate::.cpu.data     0.939079                       # miss rate for ReadExReq accesses
system.l2cache.ReadExReq_miss_rate::total     0.939079                       # miss rate for ReadExReq accesses
system.l2cache.ReadExReq_avg_miss_latency::.cpu.data 98168.041467                       # average ReadExReq miss latency
system.l2cache.ReadExReq_avg_miss_latency::total 98168.041467                       # average ReadExReq miss latency
system.l2cache.ReadExReq_mshr_misses::.cpu.data       111895                       # number of ReadExReq MSHR misses
system.l2cache.ReadExReq_mshr_misses::total       111895                       # number of ReadExReq MSHR misses
system.l2cache.ReadExReq_mshr_miss_latency::.cpu.data   8746613000                       # number of ReadExReq MSHR miss cycles
system.l2cache.ReadExReq_mshr_miss_latency::total   8746613000                       # number of ReadExReq MSHR miss cycles
system.l2cache.ReadExReq_mshr_miss_rate::.cpu.data     0.939079                       # mshr miss rate for ReadExReq accesses
system.l2cache.ReadExReq_mshr_miss_rate::total     0.939079                       # mshr miss rate for ReadExReq accesses
system.l2cache.ReadExReq_avg_mshr_miss_latency::.cpu.data 78168.041467                       # average ReadExReq mshr miss latency
system.l2cache.ReadExReq_avg_mshr_miss_latency::total 78168.041467                       # average ReadExReq mshr miss latency
system.l2cache.ReadSharedReq_hits::.cpu.inst         4971                       # number of ReadSharedReq hits
system.l2cache.ReadSharedReq_hits::.cpu.data        39915                       # number of ReadSharedReq hits
system.l2cache.ReadSharedReq_hits::total        44886                       # number of ReadSharedReq hits
system.l2cache.ReadSharedReq_misses::.cpu.inst         3789                       # number of ReadSharedReq misses
system.l2cache.ReadSharedReq_misses::.cpu.data       233106                       # number of ReadSharedReq misses
system.l2cache.ReadSharedReq_misses::total       236895                       # number of ReadSharedReq misses
system.l2cache.ReadSharedReq_miss_latency::.cpu.inst    379217000                       # number of ReadSharedReq miss cycles
system.l2cache.ReadSharedReq_miss_latency::.cpu.data  22680902000                       # number of ReadSharedReq miss cycles
system.l2cache.ReadSharedReq_miss_latency::total  23060119000                       # number of ReadSharedReq miss cycles
system.l2cache.ReadSharedReq_accesses::.cpu.inst         8760                       # number of ReadSharedReq accesses(hits+misses)
system.l2cache.ReadSharedReq_accesses::.cpu.data       273021                       # number of ReadSharedReq accesses(hits+misses)
system.l2cache.ReadSharedReq_accesses::total       281781                       # number of ReadSharedReq accesses(hits+misses)
system.l2cache.ReadSharedReq_miss_rate::.cpu.inst     0.432534                       # miss rate for ReadSharedReq accesses
system.l2cache.ReadSharedReq_miss_rate::.cpu.data     0.853802                       # miss rate for ReadSharedReq accesses
system.l2cache.ReadSharedReq_miss_rate::total     0.840706                       # miss rate for ReadSharedReq accesses
system.l2cache.ReadSharedReq_avg_miss_latency::.cpu.inst 100083.663236                       # average ReadSharedReq miss latency
system.l2cache.ReadSharedReq_avg_miss_latency::.cpu.data 97298.662411                       # average ReadSharedReq miss latency
system.l2cache.ReadSharedReq_avg_miss_latency::total 97343.206906                       # average ReadSharedReq miss latency
system.l2cache.ReadSharedReq_mshr_misses::.cpu.inst         3789                       # number of ReadSharedReq MSHR misses
system.l2cache.ReadSharedReq_mshr_misses::.cpu.data       233106                       # number of ReadSharedReq MSHR misses
system.l2cache.ReadSharedReq_mshr_misses::total       236895                       # number of ReadSharedReq MSHR misses
system.l2cache.ReadSharedReq_mshr_miss_latency::.cpu.inst    303437000                       # number of ReadSharedReq MSHR miss cycles
system.l2cache.ReadSharedReq_mshr_miss_latency::.cpu.data  18018782000                       # number of ReadSharedReq MSHR miss cycles
system.l2cache.ReadSharedReq_mshr_miss_latency::total  18322219000                       # number of ReadSharedReq MSHR miss cycles
system.l2cache.ReadSharedReq_mshr_miss_rate::.cpu.inst     0.432534                       # mshr miss rate for ReadSharedReq accesses
system.l2cache.ReadSharedReq_mshr_miss_rate::.cpu.data     0.853802                       # mshr miss rate for ReadSharedReq accesses
system.l2cache.ReadSharedReq_mshr_miss_rate::total     0.840706                       # mshr miss rate for ReadSharedReq accesses
system.l2cache.ReadSharedReq_avg_mshr_miss_latency::.cpu.inst 80083.663236                       # average ReadSharedReq mshr miss latency
system.l2cache.ReadSharedReq_avg_mshr_miss_latency::.cpu.data 77298.662411                       # average ReadSharedReq mshr miss latency
system.l2cache.ReadSharedReq_avg_mshr_miss_latency::total 77343.206906                       # average ReadSharedReq mshr miss latency
system.l2cache.power_state.pwrStateResidencyTicks::UNDEFINED 127600219000                       # Cumulative time (in ticks) in various power states
system.l2cache.replacement_policy.totalBypasses         3555                       # Total number of cache bypasses
system.l2cache.replacement_policy.effectiveBypasses          226                       # Bypasses that correctly skipped non-reused blocks
system.l2cache.replacement_policy.ineffectiveBypasses          128                       # Bypasses that incorrectly skipped requested blocks
system.l2cache.replacement_policy.virtualEffectiveBypasses         1875                       # Virtual bypasses correctly predicting non-reused blocks
system.l2cache.replacement_policy.virtualIneffectiveBypasses        13512                       # Virtual bypasses incorrectly predicting requested blocks
system.l2cache.tags.tagsinuse             4082.856523                       # Cycle average of tags in use
system.l2cache.tags.total_refs                 793481                       # Total number of references to valid blocks.
system.l2cache.tags.sampled_refs               347353                       # Sample count of references to valid blocks.
system.l2cache.tags.avg_refs                 2.284365                       # Average number of references to valid blocks.
system.l2cache.tags.warmup_cycle               447000                       # Cycle when the warmup percentage was hit.
system.l2cache.tags.occ_blocks::.writebacks    19.426638                       # Average occupied blocks per requestor
system.l2cache.tags.occ_blocks::.cpu.inst    25.764534                       # Average occupied blocks per requestor
system.l2cache.tags.occ_blocks::.cpu.data  4037.665352                       # Average occupied blocks per requestor
system.l2cache.tags.occ_percent::.writebacks     0.004743                       # Average percentage of cache occupancy
system.l2cache.tags.occ_percent::.cpu.inst     0.006290                       # Average percentage of cache occupancy
system.l2cache.tags.occ_percent::.cpu.data     0.985758                       # Average percentage of cache occupancy
system.l2cache.tags.occ_percent::total       0.996791                       # Average percentage of cache occupancy
system.l2cache.tags.occ_task_id_blocks::1024         4096                       # Occupied blocks per task id
system.l2cache.tags.age_task_id_blocks_1024::0           58                       # Occupied blocks per task id
system.l2cache.tags.age_task_id_blocks_1024::1          129                       # Occupied blocks per task id
system.l2cache.tags.age_task_id_blocks_1024::2         2287                       # Occupied blocks per task id
system.l2cache.tags.age_task_id_blocks_1024::3         1622                       # Occupied blocks per task id
system.l2cache.tags.occ_task_id_percent::1024            1                       # Percentage of cache occupancy per task id
system.l2cache.tags.tag_accesses              6752073                       # Number of tag accesses
system.l2cache.tags.data_accesses             6752073                       # Number of data accesses
system.l2cache.tags.power_state.pwrStateResidencyTicks::UNDEFINED 127600219000                       # Cumulative time (in ticks) in various power states
system.mem_ctrl.avgPriority_.writebacks::samples    172068.00                       # Average QoS priority value for accepted requests
system.mem_ctrl.avgPriority_.cpu.inst::samples      3789.00                       # Average QoS priority value for accepted requests
system.mem_ctrl.avgPriority_.cpu.data::samples    344777.00                       # Average QoS priority value for accepted requests
system.mem_ctrl.priorityMinLatency       0.000000018750                       # per QoS priority minimum request to response latency (s)
system.mem_ctrl.priorityMaxLatency       0.005444700500                       # per QoS priority maximum request to response latency (s)
system.mem_ctrl.numReadWriteTurnArounds          9713                       # Number of turnarounds from READ to WRITE
system.mem_ctrl.numWriteReadTurnArounds          9713                       # Number of turnarounds from WRITE to READ
system.mem_ctrl.numStayReadState               899009                       # Number of times bus staying in READ state
system.mem_ctrl.numStayWriteState              162549                       # Number of times bus staying in WRITE state
system.mem_ctrl.readReqs                       348790                       # Number of read requests accepted
system.mem_ctrl.writeReqs                      172068                       # Number of write requests accepted
system.mem_ctrl.readBursts                     348790                       # Number of controller read bursts, including those serviced by the write queue
system.mem_ctrl.writeBursts                    172068                       # Number of controller write bursts, including those merged in the write queue
system.mem_ctrl.servicedByWrQ                     224                       # Number of controller read bursts serviced by the write queue
system.mem_ctrl.mergedWrBursts                      0                       # Number of controller write bursts merged with an existing one
system.mem_ctrl.neitherReadNorWriteReqs             0                       # Number of requests that are neither read nor write
system.mem_ctrl.avgRdQLen                        1.00                       # Average read queue length when enqueuing
system.mem_ctrl.avgWrQLen                       24.40                       # Average write queue length when enqueuing
system.mem_ctrl.numRdRetry                          0                       # Number of times read queue was full causing retry
system.mem_ctrl.numWrRetry                          0                       # Number of times write queue was full causing retry
system.mem_ctrl.readPktSize::0                      0                       # Read request sizes (log2)
system.mem_ctrl.readPktSize::1                      0                       # Read request sizes (log2)
system.mem_ctrl.readPktSize::2                      0                       # Read request sizes (log2)
system.mem_ctrl.readPktSize::3                      0                       # Read request sizes (log2)
system.mem_ctrl.readPktSize::4                      0                       # Read request sizes (log2)
system.mem_ctrl.readPktSize::5                      0                       # Read request sizes (log2)
system.mem_ctrl.readPktSize::6                 348790                       # Read request sizes (log2)
system.mem_ctrl.writePktSize::0                     0                       # Write request sizes (log2)
system.mem_ctrl.writePktSize::1                     0                       # Write request sizes (log2)
system.mem_ctrl.writePktSize::2                     0                       # Write request sizes (log2)
system.mem_ctrl.writePktSize::3                     0                       # Write request sizes (log2)
system.mem_ctrl.writePktSize::4                     0                       # Write request sizes (log2)
system.mem_ctrl.writePktSize::5                     0                       # Write request sizes (log2)
system.mem_ctrl.writePktSize::6                172068                       # Write request sizes (log2)
system.mem_ctrl.rdQLenPdf::0                   348564                       # What read queue length does an incoming req see
system.mem_ctrl.rdQLenPdf::1                        2                       # What read queue length does an incoming req see
system.mem_ctrl.rdQLenPdf::2                        0                       # What read queue length does an incoming req see
system.mem_ctrl.rdQLenPdf::3                        0                       # What read queue length does an incoming req see
system.mem_ctrl.rdQLenPdf::4                        0                       # What read queue length does an incoming req see
system.mem_ctrl.rdQLenPdf::5                        0                       # What read queue length does an incoming req see
system.mem_ctrl.rdQLenPdf::6                        0                       # What read queue length does an incoming req see
system.mem_ctrl.rdQLenPdf::7                        0                       # What read queue length does an incoming req see
system.mem_ctrl.rdQLenPdf::8                        0                       # What read queue length does an incoming req see
system.mem_ctrl.rdQLenPdf::9                        0                       # What read queue length does an incoming req see
system.mem_ctrl.rdQLenPdf::10                       0                       # What read queue length does an incoming req see
system.mem_ctrl.rdQLenPdf::11                       0                       # What read queue length does an incoming req see
system.mem_ctrl.rdQLenPdf::12                       0                       # What read queue length does an incoming req see
system.mem_ctrl.rdQLenPdf::13                       0                       # What read queue length does an incoming req see
system.mem_ctrl.rdQLenPdf::14                       0                       # What read queue length does an incoming req see
system.mem_ctrl.rdQLenPdf::15                       0                       # What read queue length does an incoming req see
system.mem_ctrl.rdQLenPdf::16                       0                       # What read queue length does an incoming req see
system.mem_ctrl.rdQLenPdf::17                       0                       # What read queue length does an incoming req see
system.mem_ctrl.rdQLenPdf::18                       0                       # What read queue length does an incoming req see
system.mem_ctrl.rdQLenPdf::19                       0                       # What read queue length does an incoming req see
system.mem_ctrl.rdQLenPdf::20                       0                       # What read queue length does an incoming req see
system.mem_ctrl.rdQLenPdf::21                       0                       # What read queue length does an incoming req see
system.mem_ctrl.rdQLenPdf::22                       0                       # What read queue length does an incoming req see
system.mem_ctrl.rdQLenPdf::23                       0                       # What read queue length does an incoming req see
system.mem_ctrl.rdQLenPdf::24                       0                       # What read queue length does an incoming req see
system.mem_ctrl.rdQLenPdf::25                       0                       # What read queue length does an incoming req see
system.mem_ctrl.rdQLenPdf::26                       0                       # What read queue length does an incoming req see
system.mem_ctrl.rdQLenPdf::27                       0                       # What read queue length does an incoming req see
system.mem_ctrl.rdQLenPdf::28                       0                       # What read queue length does an incoming req see
system.mem_ctrl.rdQLenPdf::29                       0                       # What read queue length does an incoming req see
system.mem_ctrl.rdQLenPdf::30                       0                       # What read queue length does an incoming req see
system.mem_ctrl.rdQLenPdf::31                       0                       # What read queue length does an incoming req see
system.mem_ctrl.wrQLenPdf::0                        1                       # What write queue length does an incoming req see
system.mem_ctrl.wrQLenPdf::1                        1                       # What write queue length does an incoming req see
system.mem_ctrl.wrQLenPdf::2                        1                       # What write queue length does an incoming req see
system.mem_ctrl.wrQLenPdf::3                        1                       # What write queue length does an incoming req see
system.mem_ctrl.wrQLenPdf::4                        1                       # What write queue length does an incoming req see
system.mem_ctrl.wrQLenPdf::5                        1                       # What write queue length does an incoming req see
system.mem_ctrl.wrQLenPdf::6                        1                       # What write queue length does an incoming req see
system.mem_ctrl.wrQLenPdf::7                        1                       # What write queue length does an incoming req see
system.mem_ctrl.wrQLenPdf::8                        1                       # What write queue length does an incoming req see
system.mem_ctrl.wrQLenPdf::9                        1                       # What write queue length does an incoming req see
system.mem_ctrl.wrQLenPdf::10                       1                       # What write queue length does an incoming req see
system.mem_ctrl.wrQLenPdf::11                       1                       # What write queue length does an incoming req see
system.mem_ctrl.wrQLenPdf::12                       1                       # What write queue length does an incoming req see
system.mem_ctrl.wrQLenPdf::13                       1                       # What write queue length does an incoming req see
system.mem_ctrl.wrQLenPdf::14                       1                       # What write queue length does an incoming req see
system.mem_ctrl.wrQLenPdf::15                    8228                       # What write queue length does an incoming req see
system.mem_ctrl.wrQLenPdf::16                    8385                       # What write queue length does an incoming req see
system.mem_ctrl.wrQLenPdf::17                    9712                       # What write queue length does an incoming req see
system.mem_ctrl.wrQLenPdf::18                    9719                       # What write queue length does an incoming req see
system.mem_ctrl.wrQLenPdf::19                    9716                       # What write queue length does an incoming req see
system.mem_ctrl.wrQLenPdf::20                    9715                       # What write queue length does an incoming req see
system.mem_ctrl.wrQLenPdf::21                    9733                       # What write queue length does an incoming req see
system.mem_ctrl.wrQLenPdf::22                    9714                       # What write queue length does an incoming req see
system.mem_ctrl.wrQLenPdf::23                    9714                       # What write queue length does an incoming req see
system.mem_ctrl.wrQLenPdf::24                    9713                       # What write queue length does an incoming req see
system.mem_ctrl.wrQLenPdf::25                    9713                       # What write queue length does an incoming req see
system.mem_ctrl.wrQLenPdf::26                    9713                       # What write queue length does an incoming req see
system.mem_ctrl.wrQLenPdf::27                    9713                       # What write queue length does an incoming req see
system.mem_ctrl.wrQLenPdf::28                    9713                       # What write queue length does an incoming req see
system.mem_ctrl.wrQLenPdf::29                    9713                       # What write queue length does an incoming req see
system.mem_ctrl.wrQLenPdf::30                    9713                       # What write queue length does an incoming req see
system.mem_ctrl.wrQLenPdf::31                    9713                       # What write queue length does an incoming req see
system.mem_ctrl.wrQLenPdf::32                    9713                       # What write queue length does an incoming req see
system.mem_ctrl.wrQLenPdf::33                       0                       # What write queue length does an incoming req see
system.mem_ctrl.wrQLenPdf::34                       0                       # What write queue length does an incoming req see
system.mem_ctrl.wrQLenPdf::35                       0                       # What write queue length does an incoming req see
system.mem_ctrl.wrQLenPdf::36                       0                       # What write queue length does an incoming req see
system.mem_ctrl.wrQLenPdf::37                       0                       # What write queue length does an incoming req see
system.mem_ctrl.wrQLenPdf::38                       0                       # What write queue length does an incoming req see
system.mem_ctrl.wrQLenPdf::39                       0                       # What write queue length does an incoming req see
system.mem_ctrl.wrQLenPdf::40                       0                       # What write queue length does an incoming req see
system.mem_ctrl.wrQLenPdf::41                       0                       # What write queue length does an incoming req see
system.mem_ctrl.wrQLenPdf::42                       0                       # What write queue length does an incoming req see
system.mem_ctrl.wrQLenPdf::43                       0                       # What write queue length does an incoming req see
system.mem_ctrl.wrQLenPdf::44                       0                       # What write queue length does an incoming req see
system.mem_ctrl.wrQLenPdf::45                       0                       # What write queue length does an incoming req see
system.mem_ctrl.wrQLenPdf::46                       0                       # What write queue length does an incoming req see
system.mem_ctrl.wrQLenPdf::47                       0                       # What write queue length does an incoming req see
system.mem_ctrl.wrQLenPdf::48                       0                       # What write queue length does an incoming req see
system.mem_ctrl.wrQLenPdf::49                       0                       # What write queue length does an incoming req see
system.mem_ctrl.wrQLenPdf::50                       0                       # What write queue length does an incoming req see
system.mem_ctrl.wrQLenPdf::51                       0                       # What write queue length does an incoming req see
system.mem_ctrl.wrQLenPdf::52                       0                       # What write queue length does an incoming req see
system.mem_ctrl.wrQLenPdf::53                       0                       # What write queue length does an incoming req see
system.mem_ctrl.wrQLenPdf::54                       0                       # What write queue length does an incoming req see
system.mem_ctrl.wrQLenPdf::55                       0                       # What write queue length does an incoming req see
system.mem_ctrl.wrQLenPdf::56                       0                       # What write queue length does an incoming req see
system.mem_ctrl.wrQLenPdf::57                       0                       # What write queue length does an incoming req see
system.mem_ctrl.wrQLenPdf::58                       0                       # What write queue length does an incoming req see
system.mem_ctrl.wrQLenPdf::59                       0                       # What write queue length does an incoming req see
system.mem_ctrl.wrQLenPdf::60                       0                       # What write queue length does an incoming req see
system.mem_ctrl.wrQLenPdf::61                       0                       # What write queue length does an incoming req see
system.mem_ctrl.wrQLenPdf::62                       0                       # What write queue length does an incoming req see
system.mem_ctrl.wrQLenPdf::63                       0                       # What write queue length does an incoming req see
system.mem_ctrl.rdPerTurnAround::samples         9713                       # Reads before turning the bus around for writes
system.mem_ctrl.rdPerTurnAround::mean       35.884485                       # Reads before turning the bus around for writes
system.mem_ctrl.rdPerTurnAround::gmean      29.612816                       # Reads before turning the bus around for writes
system.mem_ctrl.rdPerTurnAround::stdev      61.921183                       # Reads before turning the bus around for writes
system.mem_ctrl.rdPerTurnAround::0-255           9691     99.77%     99.77% # Reads before turning the bus around for writes
system.mem_ctrl.rdPerTurnAround::256-511           13      0.13%     99.91% # Reads before turning the bus around for writes
system.mem_ctrl.rdPerTurnAround::512-767            4      0.04%     99.95% # Reads before turning the bus around for writes
system.mem_ctrl.rdPerTurnAround::768-1023            2      0.02%     99.97% # Reads before turning the bus around for writes
system.mem_ctrl.rdPerTurnAround::1024-1279            1      0.01%     99.98% # Reads before turning the bus around for writes
system.mem_ctrl.rdPerTurnAround::1536-1791            1      0.01%     99.99% # Reads before turning the bus around for writes
system.mem_ctrl.rdPerTurnAround::4864-5119            1      0.01%    100.00% # Reads before turning the bus around for writes
system.mem_ctrl.rdPerTurnAround::total           9713                       # Reads before turning the bus around for writes
system.mem_ctrl.wrPerTurnAround::samples         9713                       # Writes before turning the bus around for reads
system.mem_ctrl.wrPerTurnAround::mean       17.713065                       # Writes before turning the bus around for reads
system.mem_ctrl.wrPerTurnAround::gmean      17.698622                       # Writes before turning the bus around for reads
system.mem_ctrl.wrPerTurnAround::stdev       0.696197                       # Writes before turning the bus around for reads
system.mem_ctrl.wrPerTurnAround::16              1331     13.70%     13.70% # Writes before turning the bus around for reads
system.mem_ctrl.wrPerTurnAround::17               154      1.59%     15.29% # Writes before turning the bus around for reads
system.mem_ctrl.wrPerTurnAround::18              8199     84.41%     99.70% # Writes before turning the bus around for reads
system.mem_ctrl.wrPerTurnAround::19                29      0.30%    100.00% # Writes before turning the bus around for reads
system.mem_ctrl.wrPerTurnAround::total           9713                       # Writes before turning the bus around for reads
system.mem_ctrl.bytesReadWrQ                    14336                       # Total number of bytes read from write queue
system.mem_ctrl.bytesReadSys                 22322560                       # Total read bytes from the system interface side
system.mem_ctrl.bytesWrittenSys              11012352                       # Total written bytes from the system interface side
system.mem_ctrl.avgRdBWSys                     174.94                       # Average system read bandwidth in MiByte/s
system.mem_ctrl.avgWrBWSys                      86.30                       # Average system write bandwidth in MiByte/s
system.mem_ctrl.totGap                   127600098000                       # Total gap between requests
[...]
system.mem_ctrl.requestorReadRate::.cpu.data 172928606.023787498474                       # Per-requestor bytes read from memory rate (Bytes/sec)
system.mem_ctrl.requestorWriteRate::.writebacks 86293018.039412617683                       # Per-requestor bytes write to memory rate (Bytes/sec)
system.mem_ctrl.requestorReadAccesses::.cpu.inst         3789                       # Per-requestor read serviced memory accesses
system.mem_ctrl.requestorReadAccesses::.cpu.data       345001                       # Per-requestor read serviced memory accesses
system.mem_ctrl.requestorWriteAccesses::.writebacks       172068                       # Per-requestor write serviced memory accesses
system.mem_ctrl.requestorReadTotalLat::.cpu.inst    108916000                       # Per-requestor read total memory access latency
system.mem_ctrl.requestorReadTotalLat::.cpu.data   9074697250                       # Per-requestor read total memory access latency
system.mem_ctrl.requestorWriteTotalLat::.writebacks 2998621646750                       # Per-requestor write total memory access latency
system.mem_ctrl.requestorReadAvgLat::.cpu.inst     28745.32                       # Per-requestor read average memory access latency
system.mem_ctrl.requestorReadAvgLat::.cpu.data     26303.39                       # Per-requestor read average memory access latency
system.mem_ctrl.requestorWriteAvgLat::.writebacks  17426957.06                       # Per-requestor write average memory access latency
system.mem_ctrl.dram.bytes_read::.cpu.inst       242496                       # Number of bytes read from this memory
system.mem_ctrl.dram.bytes_read::.cpu.data     22080064                       # Number of bytes read from this memory
system.mem_ctrl.dram.bytes_read::total       22322560                       # Number of bytes read from this memory
system.mem_ctrl.dram.bytes_inst_read::.cpu.inst       242496                       # Number of instructions bytes read from this memory
system.mem_ctrl.dram.bytes_inst_read::total       242496                       # Number of instructions bytes read from this memory
system.mem_ctrl.dram.bytes_written::.writebacks     11012352                       # Number of bytes written to this memory
system.mem_ctrl.dram.bytes_written::total     11012352                       # Number of bytes written to this memory
system.mem_ctrl.dram.num_reads::.cpu.inst         3789                       # Number of read requests responded to by this memory
system.mem_ctrl.dram.num_reads::.cpu.data       345001                       # Number of read requests responded to by this memory
system.mem_ctrl.dram.num_reads::total          348790                       # Number of read requests responded to by this memory
system.mem_ctrl.dram.num_writes::.writebacks       172068                       # Number of write requests responded to by this memory
system.mem_ctrl.dram.num_writes::total         172068                       # Number of write requests responded to by this memory
system.mem_ctrl.dram.bw_read::.cpu.inst       1900436                       # Total read bandwidth from this memory (bytes/s)
system.mem_ctrl.dram.bw_read::.cpu.data     173040957                       # Total read bandwidth from this memory (bytes/s)
system.mem_ctrl.dram.bw_read::total         174941393                       # Total read bandwidth from this memory (bytes/s)
system.mem_ctrl.dram.bw_inst_read::.cpu.inst      1900436                       # Instruction read bandwidth from this memory (bytes/s)
system.mem_ctrl.dram.bw_inst_read::total      1900436                       # Instruction read bandwidth from this memory (bytes/s)
system.mem_ctrl.dram.bw_write::.writebacks     86303551                       # Write bandwidth from this memory (bytes/s)
system.mem_ctrl.dram.bw_write::total         86303551                       # Write bandwidth from this memory (bytes/s)
system.mem_ctrl.dram.bw_total::.writebacks     86303551                       # Total bandwidth to/from this memory (bytes/s)
system.mem_ctrl.dram.bw_total::.cpu.inst      1900436                       # Total bandwidth to/from this memory (bytes/s)
system.mem_ctrl.dram.bw_total::.cpu.data    173040957                       # Total bandwidth to/from this memory (bytes/s)
system.mem_ctrl.dram.bw_total::total        261244943                       # Total bandwidth to/from this memory (bytes/s)
system.mem_ctrl.dram.readBursts                348566                       # Number of DRAM read bursts
system.mem_ctrl.dram.writeBursts               172047                       # Number of DRAM write bursts
system.mem_ctrl.dram.perBankRdBursts::0         19524                       # Per bank write bursts
system.mem_ctrl.dram.perBankRdBursts::1         20090                       # Per bank write bursts
system.mem_ctrl.dram.perBankRdBursts::2         20830                       # Per bank write bursts
system.mem_ctrl.dram.perBankRdBursts::3         21911                       # Per bank write bursts
system.mem_ctrl.dram.perBankRdBursts::4         23824                       # Per bank write bursts
system.mem_ctrl.dram.perBankRdBursts::5         24004                       # Per bank write bursts
system.mem_ctrl.dram.perBankRdBursts::6         21860                       # Per bank write bursts
system.mem_ctrl.dram.perBankRdBursts::7         21789                       # Per bank write bursts
system.mem_ctrl.dram.perBankRdBursts::8         23150                       # Per bank write bursts
system.mem_ctrl.dram.perBankRdBursts::9         24432                       # Per bank write bursts
system.mem_ctrl.dram.perBankRdBursts::10        22197                       # Per bank write bursts
system.mem_ctrl.dram.perBankRdBursts::11        21861                       # Per bank write bursts
system.mem_ctrl.dram.perBankRdBursts::12        21807                       # Per bank write bursts
system.mem_ctrl.dram.perBankRdBursts::13        21307                       # Per bank write bursts
system.mem_ctrl.dram.perBankRdBursts::14        20270                       # Per bank write bursts
system.mem_ctrl.dram.perBankRdBursts::15        19710                       # Per bank write bursts
system.mem_ctrl.dram.perBankWrBursts::0          9797                       # Per bank write bursts
system.mem_ctrl.dram.perBankWrBursts::1          9960                       # Per bank write bursts
system.mem_ctrl.dram.perBankWrBursts::2          9973                       # Per bank write bursts
system.mem_ctrl.dram.perBankWrBursts::3         10319                       # Per bank write bursts
system.mem_ctrl.dram.perBankWrBursts::4         11194                       # Per bank write bursts
system.mem_ctrl.dram.perBankWrBursts::5         11302                       # Per bank write bursts
system.mem_ctrl.dram.perBankWrBursts::6         10549                       # Per bank write bursts
system.mem_ctrl.dram.perBankWrBursts::7         11023                       # Per bank write bursts
system.mem_ctrl.dram.perBankWrBursts::8         11527                       # Per bank write bursts
system.mem_ctrl.dram.perBankWrBursts::9         11999                       # Per bank write bursts
system.mem_ctrl.dram.perBankWrBursts::10        11168                       # Per bank write bursts
system.mem_ctrl.dram.perBankWrBursts::11        11057                       # Per bank write bursts
system.mem_ctrl.dram.perBankWrBursts::12        10911                       # Per bank write bursts
system.mem_ctrl.dram.perBankWrBursts::13        10830                       # Per bank write bursts
system.mem_ctrl.dram.perBankWrBursts::14        10354                       # Per bank write bursts
system.mem_ctrl.dram.perBankWrBursts::15        10084                       # Per bank write bursts
system.mem_ctrl.dram.totQLat               2648000750                       # Total ticks spent queuing
system.mem_ctrl.dram.totBusLat             1742830000                       # Total ticks spent in databus transfers
system.mem_ctrl.dram.totMemAccLat          9183613250                       # Total ticks spent from burst creation until serviced by the DRAM
system.mem_ctrl.dram.avgQLat                  7596.84                       # Average queueing delay per DRAM burst
system.mem_ctrl.dram.avgBusLat                5000.00                       # Average bus latency per DRAM burst
system.mem_ctrl.dram.avgMemAccLat            26346.84                       # Average memory access latency per DRAM burst
system.mem_ctrl.dram.readRowHits               299135                       # Number of row buffer hits during reads
system.mem_ctrl.dram.writeRowHits              144643                       # Number of row buffer hits during writes
system.mem_ctrl.dram.readRowHitRate             85.82                       # Row buffer hit rate for reads
system.mem_ctrl.dram.writeRowHitRate            84.07                       # Row buffer hit rate for writes
system.mem_ctrl.dram.bytesPerActivate::samples        76822                       # Bytes accessed per row activation
system.mem_ctrl.dram.bytesPerActivate::mean   433.694098                       # Bytes accessed per row activation
system.mem_ctrl.dram.bytesPerActivate::gmean   329.811016                       # Bytes accessed per row activation
system.mem_ctrl.dram.bytesPerActivate::stdev   285.344994                       # Bytes accessed per row activation
system.mem_ctrl.dram.bytesPerActivate::0-127         8422     10.96%     10.96% # Bytes accessed per row activation
system.mem_ctrl.dram.bytesPerActivate::128-255        12832     16.70%     27.67% # Bytes accessed per row activation
system.mem_ctrl.dram.bytesPerActivate::256-383        10449     13.60%     41.27% # Bytes accessed per row activation
system.mem_ctrl.dram.bytesPerActivate::384-511        15763     20.52%     61.79% # Bytes accessed per row activation
system.mem_ctrl.dram.bytesPerActivate::512-639        14464     18.83%     80.61% # Bytes accessed per row activation
system.mem_ctrl.dram.bytesPerActivate::640-767         2771      3.61%     84.22% # Bytes accessed per row activation
system.mem_ctrl.dram.bytesPerActivate::768-895         2364      3.08%     87.30% # Bytes accessed per row activation
system.mem_ctrl.dram.bytesPerActivate::896-1023         1869      2.43%     89.73% # Bytes accessed per row activation
system.mem_ctrl.dram.bytesPerActivate::1024-1151         7888     10.27%    100.00% # Bytes accessed per row activation
system.mem_ctrl.dram.bytesPerActivate::total        76822                       # Bytes accessed per row activation
system.mem_ctrl.dram.bytesRead               22308224                       # Total number of bytes read from DRAM
system.mem_ctrl.dram.bytesWritten            11011008                       # Total number of bytes written to DRAM
system.mem_ctrl.dram.avgRdBW               174.829042                       # Average DRAM read bandwidth in MiBytes/s
system.mem_ctrl.dram.avgWrBW                86.293018                       # Average DRAM write bandwidth in MiBytes/s
system.mem_ctrl.dram.peakBW                  12800.00                       # Theoretical peak bandwidth in MiByte/s
system.mem_ctrl.dram.busUtil                     2.04                       # Data bus utilization in percentage
system.mem_ctrl.dram.busUtilRead                 1.37                       # Data bus utilization in percentage for reads
system.mem_ctrl.dram.busUtilWrite                0.67                       # Data bus utilization in percentage for writes
system.mem_ctrl.dram.pageHitRate                85.24                       # Row buffer hit rate, read and write combined
system.mem_ctrl.dram.power_state.pwrStateResidencyTicks::UNDEFINED 127600219000                       # Cumulative time (in ticks) in various power states
system.mem_ctrl.dram.rank0.actEnergy        276025260                       # Energy for activate commands per rank (pJ)
system.mem_ctrl.dram.rank0.preEnergy        146684340                       # Energy for precharge commands per rank (pJ)
system.mem_ctrl.dram.rank0.readEnergy      1241160480                       # Energy for read commands per rank (pJ)
system.mem_ctrl.dram.rank0.writeEnergy      439090740                       # Energy for write commands per rank (pJ)
system.mem_ctrl.dram.rank0.refreshEnergy 10072105680.000002                       # Energy for refresh commands per rank (pJ)
system.mem_ctrl.dram.rank0.actBackEnergy  43816344030                       # Energy for active background per rank (pJ)
system.mem_ctrl.dram.rank0.preBackEnergy  12100510560                       # Energy for precharge background per rank (pJ)
system.mem_ctrl.dram.rank0.actPowerDownEnergy            0                       # Energy for active power-down per rank (pJ)
system.mem_ctrl.dram.rank0.prePowerDownEnergy            0                       # Energy for precharge power-down per rank (pJ)
system.mem_ctrl.dram.rank0.selfRefreshEnergy            0                       # Energy for self refresh per rank (pJ)
system.mem_ctrl.dram.rank0.totalEnergy    68091921090                       # Total energy per rank (pJ)
system.mem_ctrl.dram.rank0.averagePower    533.634829                       # Core power per rank (mW)
system.mem_ctrl.dram.rank0.totalIdleTime            0                       # Total Idle time Per DRAM Rank
system.mem_ctrl.dram.rank0.pwrStateTime::IDLE  31068924750                       # Time in different power states
system.mem_ctrl.dram.rank0.pwrStateTime::REF   4260620000                       # Time in different power states
system.mem_ctrl.dram.rank0.pwrStateTime::SREF            0                       # Time in different power states
system.mem_ctrl.dram.rank0.pwrStateTime::PRE_PDN            0                       # Time in different power states
system.mem_ctrl.dram.rank0.pwrStateTime::ACT  92270674250                       # Time in different power states
system.mem_ctrl.dram.rank0.pwrStateTime::ACT_PDN            0                       # Time in different power states
system.mem_ctrl.dram.rank1.actEnergy        272576640                       # Energy for activate commands per rank (pJ)
system.mem_ctrl.dram.rank1.preEnergy        144855150                       # Energy for precharge commands per rank (pJ)
system.mem_ctrl.dram.rank1.readEnergy      1247600760                       # Energy for read commands per rank (pJ)
system.mem_ctrl.dram.rank1.writeEnergy      458994600                       # Energy for write commands per rank (pJ)
system.mem_ctrl.dram.rank1.refreshEnergy 10072105680.000002                       # Energy for refresh commands per rank (pJ)
system.mem_ctrl.dram.rank1.actBackEnergy  43635217410                       # Energy for active background per rank (pJ)
system.mem_ctrl.dram.rank1.preBackEnergy  12253038240                       # Energy for precharge background per rank (pJ)
system.mem_ctrl.dram.rank1.actPowerDownEnergy            0                       # Energy for active power-down per rank (pJ)
system.mem_ctrl.dram.rank1.prePowerDownEnergy            0                       # Energy for precharge power-down per rank (pJ)
system.mem_ctrl.dram.rank1.selfRefreshEnergy            0                       # Energy for self refresh per rank (pJ)
system.mem_ctrl.dram.rank1.totalEnergy    68084388480                       # Total energy per rank (pJ)
system.mem_ctrl.dram.rank1.averagePower    533.575796                       # Core power per rank (mW)
system.mem_ctrl.dram.rank1.totalIdleTime            0                       # Total Idle time Per DRAM Rank
system.mem_ctrl.dram.rank1.pwrStateTime::IDLE  31471901000                       # Time in different power states
system.mem_ctrl.dram.rank1.pwrStateTime::REF   4260620000                       # Time in different power states
system.mem_ctrl.dram.rank1.pwrStateTime::SREF            0                       # Time in different power states
system.mem_ctrl.dram.rank1.pwrStateTime::PRE_PDN            0                       # Time in different power states
system.mem_ctrl.dram.rank1.pwrStateTime::ACT  91867698000                       # Time in different power states
system.mem_ctrl.dram.rank1.pwrStateTime::ACT_PDN            0                       # Time in different power states
system.mem_ctrl.power_state.pwrStateResidencyTicks::UNDEFINED 127600219000                       # Cumulative time (in ticks) in various power states
system.membus.trans_dist::ReadResp             236895                       # Transaction distribution
system.membus.trans_dist::WritebackDirty       172068                       # Transaction distribution
system.membus.trans_dist::CleanEvict           172612                       # Transaction distribution
system.membus.trans_dist::ReadExReq            111895                       # Transaction distribution
system.membus.trans_dist::ReadExResp           111895                       # Transaction distribution
system.membus.trans_dist::ReadSharedReq        236895                       # Transaction distribution
system.membus.pkt_count_system.l2cache.mem_side_port::system.mem_ctrl.port      1042260                       # Packet count per connected requestor and responder (bytes)
system.membus.pkt_count_system.l2cache.mem_side_port::total      1042260                       # Packet count per connected requestor and responder (bytes)
system.membus.pkt_count::total                1042260                       # Packet count per connected requestor and responder (bytes)
system.membus.pkt_size_system.l2cache.mem_side_port::system.mem_ctrl.port     33334912                       # Cumulative packet size per connected requestor and responder (bytes)
system.membus.pkt_size_system.l2cache.mem_side_port::total     33334912                       # Cumulative packet size per connected requestor and responder (bytes)
system.membus.pkt_size::total                33334912                       # Cumulative packet size per connected requestor and responder (bytes)
system.membus.snoops                                0                       # Total snoops (count)
system.membus.snoopTraffic                          0                       # Total snoop traffic (bytes)
system.membus.snoop_fanout::samples            348790                       # Request fanout histogram
system.membus.snoop_fanout::mean                    0                       # Request fanout histogram
system.membus.snoop_fanout::stdev                   0                       # Request fanout histogram
system.membus.snoop_fanout::underflows              0      0.00%      0.00% # Request fanout histogram
system.membus.snoop_fanout::0                  348790    100.00%    100.00% # Request fanout histogram
system.membus.snoop_fanout::1                       0      0.00%    100.00% # Request fanout histogram
system.membus.snoop_fanout::overflows               0      0.00%    100.00% # Request fanout histogram
system.membus.snoop_fanout::min_value               0                       # Request fanout histogram
system.membus.snoop_fanout::max_value               0                       # Request fanout histogram
system.membus.snoop_fanout::total              348790                       # Request fanout histogram
system.membus.power_state.pwrStateResidencyTicks::UNDEFINED 127600219000                       # Cumulative time (in ticks) in various power states
system.membus.reqLayer2.occupancy          1381742000                       # Layer occupancy (ticks)
system.membus.reqLayer2.utilization               1.1                       # Layer utilization (%)
system.membus.respLayer0.occupancy         1843095750                       # Layer occupancy (ticks)
system.membus.respLayer0.utilization              1.4                       # Layer utilization (%)

---------- End Simulation Statistics   ----------
