
---------- Begin Simulation Statistics ----------
final_tick                               1709063662000                       # Number of ticks from beginning of simulation (restored from checkpoints and never reset)
host_inst_rate                                 431582                       # Simulator instruction rate (inst/s)
host_mem_usage                                 664132                       # Number of bytes of host memory used
host_op_rate                                   792007                       # Simulator op (including micro ops) rate (op/s)
host_seconds                                   688.59                       # Real time elapsed on the host
host_tick_rate                             2481990102                       # Simulator tick rate (ticks/s)
sim_freq                                 1000000000000                       # Frequency of simulated ticks
sim_insts                                   297181003                       # Number of instructions simulated
sim_ops                                     545364575                       # Number of ops (including micro ops) simulated
sim_seconds                                  1.709064                       # Number of seconds simulated
sim_ticks                                1709063662000                       # Number of ticks simulated
system.cpu.Branches                          49473269                       # Number of branches fetched
system.cpu.committedInsts                   297181003                       # Number of instructions committed
system.cpu.committedOps                     545364575                       # Number of ops (including micro ops) committed
system.cpu.idle_fraction                     0.000000                       # Percentage of idle cycles
system.cpu.not_idle_fraction                 1.000000                       # Percentage of non-idle cycles
system.cpu.numCycles                       1709063662                       # number of cpu cycles simulated
system.cpu.numWorkItemsCompleted                    0                       # number of work items this cpu completed
system.cpu.numWorkItemsStarted                      0                       # number of work items this cpu started
system.cpu.num_busy_cycles               1709063661.999000                       # Number of busy cycles
system.cpu.num_cc_register_reads            252086591                       # number of times the CC registers were read
system.cpu.num_cc_register_writes           180867052                       # number of times the CC registers were written
system.cpu.num_conditional_control_insts     49270097                       # number of instructions that are conditional controls
system.cpu.num_fp_alu_accesses              184508630                       # Number of float alu accesses
system.cpu.num_fp_insts                     184508630                       # number of float instructions
system.cpu.num_fp_register_reads            225216959                       # number of times the floating registers were read
system.cpu.num_fp_register_writes           180499649                       # number of times the floating registers were written
system.cpu.num_func_calls                       81592                       # number of times a function call or return occured
system.cpu.num_idle_cycles                   0.001000                       # Number of idle cycles
system.cpu.num_int_alu_accesses             435906654                       # Number of integer alu accesses
system.cpu.num_int_insts                    435906654                       # number of integer instructions
system.cpu.num_int_register_reads           778693062                       # number of times the integer registers were read
system.cpu.num_int_register_writes          309382709                       # number of times the integer registers were written
system.cpu.num_load_insts                   111390475                       # Number of load instructions
system.cpu.num_mem_refs                     116747143                       # number of memory refs
system.cpu.num_store_insts                    5356668                       # Number of store instructions
system.cpu.num_vec_alu_accesses                     0                       # Number of vector alu accesses
system.cpu.num_vec_insts                            0                       # number of vector instructions
system.cpu.num_vec_register_reads                   0                       # number of times the vector registers were read
system.cpu.num_vec_register_writes                  0                       # number of times the vector registers were written
system.cpu.op_class::No_OpClass                710625      0.13%      0.13% # Class of executed instruction
system.cpu.op_class::IntAlu                 322694290     59.17%     59.30% # Class of executed instruction
system.cpu.op_class::IntMult                    30102      0.01%     59.31% # Class of executed instruction
system.cpu.op_class::IntDiv                       623      0.00%     59.31% # Class of executed instruction
system.cpu.op_class::FloatAdd                33737834      6.19%     65.49% # Class of executed instruction
system.cpu.op_class::FloatCmp                       0      0.00%     65.49% # Class of executed instruction
system.cpu.op_class::FloatCvt                       0      0.00%     65.49% # Class of executed instruction
system.cpu.op_class::FloatMult                      0      0.00%     65.49% # Class of executed instruction
system.cpu.op_class::FloatMultAcc                   0      0.00%     65.49% # Class of executed instruction
system.cpu.op_class::FloatDiv                       0      0.00%     65.49% # Class of executed instruction
system.cpu.op_class::FloatMisc                      0      0.00%     65.49% # Class of executed instruction
system.cpu.op_class::FloatSqrt                      0      0.00%     65.49% # Class of executed instruction
system.cpu.op_class::SimdAdd                    76762      0.01%     65.51% # Class of executed instruction
system.cpu.op_class::SimdAddAcc                     0      0.00%     65.51% # Class of executed instruction
system.cpu.op_class::SimdAlu                    60252      0.01%     65.52% # Class of executed instruction
system.cpu.op_class::SimdCmp                       24      0.00%     65.52% # Class of executed instruction
system.cpu.op_class::SimdCvt                     1170      0.00%     65.52% # Class of executed instruction
system.cpu.op_class::SimdMisc                  125019      0.02%     65.54% # Class of executed instruction
system.cpu.op_class::SimdMult                       0      0.00%     65.54% # Class of executed instruction
system.cpu.op_class::SimdMultAcc                    0      0.00%     65.54% # Class of executed instruction
system.cpu.op_class::SimdShift                      0      0.00%     65.54% # Class of executed instruction
system.cpu.op_class::SimdShiftAcc                   0      0.00%     65.54% # Class of executed instruction
system.cpu.op_class::SimdDiv                        0      0.00%     65.54% # Class of executed instruction
system.cpu.op_class::SimdSqrt                       0      0.00%     65.54% # Class of executed instruction
system.cpu.op_class::SimdFloatAdd            35512541      6.51%     72.05% # Class of executed instruction
system.cpu.op_class::SimdFloatAlu                   0      0.00%     72.05% # Class of executed instruction
system.cpu.op_class::SimdFloatCmp                   0      0.00%     72.05% # Class of executed instruction
system.cpu.op_class::SimdFloatCvt              101637      0.02%     72.07% # Class of executed instruction
system.cpu.op_class::SimdFloatDiv                 835      0.00%     72.07% # Class of executed instruction
system.cpu.op_class::SimdFloatMisc                  0      0.00%     72.07% # Class of executed instruction
system.cpu.op_class::SimdFloatMult           35565797      6.52%     78.59% # Class of executed instruction
system.cpu.op_class::SimdFloatMultAcc               0      0.00%     78.59% # Class of executed instruction
system.cpu.op_class::SimdFloatSqrt                 32      0.00%     78.59% # Class of executed instruction
system.cpu.op_class::SimdReduceAdd                  0      0.00%     78.59% # Class of executed instruction
system.cpu.op_class::SimdReduceAlu                  0      0.00%     78.59% # Class of executed instruction
system.cpu.op_class::SimdReduceCmp                  0      0.00%     78.59% # Class of executed instruction
system.cpu.op_class::SimdFloatReduceAdd             0      0.00%     78.59% # Class of executed instruction
system.cpu.op_class::SimdFloatReduceCmp             0      0.00%     78.59% # Class of executed instruction
system.cpu.op_class::SimdAes                        0      0.00%     78.59% # Class of executed instruction
system.cpu.op_class::SimdAesMix                     0      0.00%     78.59% # Class of executed instruction
system.cpu.op_class::SimdSha1Hash                   0      0.00%     78.59% # Class of executed instruction
system.cpu.op_class::SimdSha1Hash2                  0      0.00%     78.59% # Class of executed instruction
system.cpu.op_class::SimdSha256Hash                 0      0.00%     78.59% # Class of executed instruction
system.cpu.op_class::SimdSha256Hash2                0      0.00%     78.59% # Class of executed instruction
system.cpu.op_class::SimdShaSigma2                  0      0.00%     78.59% # Class of executed instruction
system.cpu.op_class::SimdShaSigma3                  0      0.00%     78.59% # Class of executed instruction
system.cpu.op_class::SimdPredAlu                    0      0.00%     78.59% # Class of executed instruction
system.cpu.op_class::MemRead                 39670292      7.27%     85.87% # Class of executed instruction
system.cpu.op_class::MemWrite                 1421537      0.26%     86.13% # Class of executed instruction
system.cpu.op_class::FloatMemRead            71720183     13.15%     99.28% # Class of executed instruction
system.cpu.op_class::FloatMemWrite            3935131      0.72%    100.00% # Class of executed instruction
system.cpu.op_class::IprAccess                      0      0.00%    100.00% # Class of executed instruction
system.cpu.op_class::InstPrefetch                   0      0.00%    100.00% # Class of executed instruction
system.cpu.op_class::total                  545364686                       # Class of executed instruction
system.cpu.workload.numSyscalls                    87                       # Number of system calls
system.l2bus.snoop_filter.hit_multi_requests            0                       # Number of requests hitting in the snoop filter with multiple (>1) holders of the requested data.
system.l2bus.snoop_filter.hit_multi_snoops            0                       # Number of snoops hitting in the snoop filter with multiple (>1) holders of the requested data.
system.l2bus.snoop_filter.hit_single_requests      6626207                       # Number of requests hitting in the snoop filter with a single holder of the requested data.
system.l2bus.snoop_filter.hit_single_snoops        23494                       # Number of snoops hitting in the snoop filter with a single holder of the requested data.
system.l2bus.snoop_filter.tot_requests       13253694                       # Total number of requests made to the snoop filter.
system.l2bus.snoop_filter.tot_snoops            23494                       # Total number of snoops made to the snoop filter.
system.membus.snoop_filter.hit_multi_requests            0                       # Number of requests hitting in the snoop filter with multiple (>1) holders of the requested data.
system.membus.snoop_filter.hit_multi_snoops            0                       # Number of snoops hitting in the snoop filter with multiple (>1) holders of the requested data.
system.membus.snoop_filter.hit_single_requests      6518612                       # Number of requests hitting in the snoop filter with a single holder of the requested data.
system.membus.snoop_filter.hit_single_snoops            0                       # Number of snoops hitting in the snoop filter with a single holder of the requested data.
system.membus.snoop_filter.tot_requests      13041409                       # Total number of requests made to the snoop filter.
system.membus.snoop_filter.tot_snoops               0                       # Total number of snoops made to the snoop filter.
system.clk_domain.clock                          1000                       # Clock period in ticks
system.clk_domain.voltage_domain.voltage            1                       # Voltage in Volts
system.cpu.dcache.demand_hits::.cpu.data    110150254                       # number of demand (read+write) hits
system.cpu.dcache.demand_hits::total        110150254                       # number of demand (read+write) hits
system.cpu.dcache.overall_hits::.cpu.data    110150254                       # number of overall hits
system.cpu.dcache.overall_hits::total       110150254                       # number of overall hits
system.cpu.dcache.demand_misses::.cpu.data      6608747                       # number of demand (read+write) misses
system.cpu.dcache.demand_misses::total        6608747                       # number of demand (read+write) misses
system.cpu.dcache.overall_misses::.cpu.data      6608747                       # number of overall misses
system.cpu.dcache.overall_misses::total       6608747                       # number of overall misses
system.cpu.dcache.demand_miss_latency::.cpu.data 661081054000                       # number of demand (read+write) miss cycles
system.cpu.dcache.demand_miss_latency::total 661081054000                       # number of demand (read+write) miss cycles
system.cpu.dcache.overall_miss_latency::.cpu.data 661081054000                       # number of overall miss cycles
system.cpu.dcache.overall_miss_latency::total 661081054000                       # number of overall miss cycles
system.cpu.dcache.demand_accesses::.cpu.data    116759001                       # number of demand (read+write) accesses
system.cpu.dcache.demand_accesses::total    116759001                       # number of demand (read+write) accesses
system.cpu.dcache.overall_accesses::.cpu.data    116759001                       # number of overall (read+write) accesses
system.cpu.dcache.overall_accesses::total    116759001                       # number of overall (read+write) accesses
system.cpu.dcache.demand_miss_rate::.cpu.data     0.056602                       # miss rate for demand accesses
system.cpu.dcache.demand_miss_rate::total     0.056602                       # miss rate for demand accesses
system.cpu.dcache.overall_miss_rate::.cpu.data     0.056602                       # miss rate for overall accesses
system.cpu.dcache.overall_miss_rate::total     0.056602                       # miss rate for overall accesses
system.cpu.dcache.demand_avg_miss_latency::.cpu.data 100031.224376                       # average overall miss latency
system.cpu.dcache.demand_avg_miss_latency::total 100031.224376                       # average overall miss latency
system.cpu.dcache.overall_avg_miss_latency::.cpu.data 100031.224376                       # average overall miss latency
system.cpu.dcache.overall_avg_miss_latency::total 100031.224376                       # average overall miss latency
system.cpu.dcache.blocked_cycles::no_mshrs            0                       # number of cycles access was blocked
system.cpu.dcache.blocked_cycles::no_targets            0                       # number of cycles access was blocked
system.cpu.dcache.blocked::no_mshrs                 0                       # number of cycles access was blocked
system.cpu.dcache.blocked::no_targets               0                       # number of cycles access was blocked
system.cpu.dcache.avg_blocked_cycles::no_mshrs          nan                       # average number of cycles each access was blocked
system.cpu.dcache.avg_blocked_cycles::no_targets          nan                       # average number of cycles each access was blocked
system.cpu.dcache.writebacks::.writebacks       384292                       # number of writebacks
system.cpu.dcache.writebacks::total            384292                       # number of writebacks
system.cpu.dcache.demand_mshr_misses::.cpu.data      6608747                       # number of demand (read+write) MSHR misses
system.cpu.dcache.demand_mshr_misses::total      6608747                       # number of demand (read+write) MSHR misses
system.cpu.dcache.overall_mshr_misses::.cpu.data      6608747                       # number of overall MSHR misses
system.cpu.dcache.overall_mshr_misses::total      6608747                       # number of overall MSHR misses
system.cpu.dcache.demand_mshr_miss_latency::.cpu.data 647863560000                       # number of demand (read+write) MSHR miss cycles
system.cpu.dcache.demand_mshr_miss_latency::total 647863560000                       # number of demand (read+write) MSHR miss cycles
system.cpu.dcache.overall_mshr_miss_latency::.cpu.data 647863560000                       # number of overall MSHR miss cycles
system.cpu.dcache.overall_mshr_miss_latency::total 647863560000                       # number of overall MSHR miss cycles
system.cpu.dcache.demand_mshr_miss_rate::.cpu.data     0.056602                       # mshr miss rate for demand accesses
system.cpu.dcache.demand_mshr_miss_rate::total     0.056602                       # mshr miss rate for demand accesses
system.cpu.dcache.overall_mshr_miss_rate::.cpu.data     0.056602                       # mshr miss rate for overall accesses
system.cpu.dcache.overall_mshr_miss_rate::total     0.056602                       # mshr miss rate for overall accesses
system.cpu.dcache.demand_avg_mshr_miss_latency::.cpu.data 98031.224376                       # average overall mshr miss latency
system.cpu.dcache.demand_avg_mshr_miss_latency::total 98031.224376                       # average overall mshr miss latency
system.cpu.dcache.overall_avg_mshr_miss_latency::.cpu.data 98031.224376                       # average overall mshr miss latency
system.cpu.dcache.overall_avg_mshr_miss_latency::total 98031.224376                       # average overall mshr miss latency
system.cpu.dcache.replacements                6607723                       # number of replacements
system.cpu.dcache.ReadReq_hits::.cpu.data    104904682                       # number of ReadReq hits
system.cpu.dcache.ReadReq_hits::total       104904682                       # number of ReadReq hits
system.cpu.dcache.ReadReq_misses::.cpu.data      6490776                       # number of ReadReq misses
system.cpu.dcache.ReadReq_misses::total       6490776                       # number of ReadReq misses
system.cpu.dcache.ReadReq_miss_latency::.cpu.data 650213085000                       # number of ReadReq miss cycles
system.cpu.dcache.ReadReq_miss_latency::total 650213085000                       # number of ReadReq miss cycles
system.cpu.dcache.ReadReq_accesses::.cpu.data    111395458                       # number of ReadReq accesses(hits+misses)
system.cpu.dcache.ReadReq_accesses::total    111395458                       # number of ReadReq accesses(hits+misses)
system.cpu.dcache.ReadReq_miss_rate::.cpu.data     0.058268                       # miss rate for ReadReq accesses
system.cpu.dcache.ReadReq_miss_rate::total     0.058268                       # miss rate for ReadReq accesses
system.cpu.dcache.ReadReq_avg_miss_latency::.cpu.data 100174.938251                       # average ReadReq miss latency
system.cpu.dcache.ReadReq_avg_miss_latency::total 100174.938251                       # average ReadReq miss latency
system.cpu.dcache.ReadReq_mshr_misses::.cpu.data      6490776                       # number of ReadReq MSHR misses
system.cpu.dcache.ReadReq_mshr_misses::total      6490776                       # number of ReadReq MSHR misses
system.cpu.dcache.ReadReq_mshr_miss_latency::.cpu.data 637231533000                       # number of ReadReq MSHR miss cycles
system.cpu.dcache.ReadReq_mshr_miss_latency::total 637231533000                       # number of ReadReq MSHR miss cycles
system.cpu.dcache.ReadReq_mshr_miss_rate::.cpu.data     0.058268                       # mshr miss rate for ReadReq accesses
system.cpu.dcache.ReadReq_mshr_miss_rate::total     0.058268                       # mshr miss rate for ReadReq accesses
system.cpu.dcache.ReadReq_avg_mshr_miss_latency::.cpu.data 98174.938251                       # average ReadReq mshr miss latency
system.cpu.dcache.ReadReq_avg_mshr_miss_latency::total 98174.938251                       # average ReadReq mshr miss latency
system.cpu.dcache.WriteReq_hits::.cpu.data      5245572                       # number of WriteReq hits
system.cpu.dcache.WriteReq_hits::total        5245572                       # number of WriteReq hits
system.cpu.dcache.WriteReq_misses::.cpu.data       117971                       # number of WriteReq misses
system.cpu.dcache.WriteReq_misses::total       117971                       # number of WriteReq misses
system.cpu.dcache.WriteReq_miss_latency::.cpu.data  10867969000                       # number of WriteReq miss cycles
system.cpu.dcache.WriteReq_miss_latency::total  10867969000                       # number of WriteReq miss cycles
system.cpu.dcache.WriteReq_accesses::.cpu.data      5363543                       # number of WriteReq accesses(hits+misses)
system.cpu.dcache.WriteReq_accesses::total      5363543                       # number of WriteReq accesses(hits+misses)
system.cpu.dcache.WriteReq_miss_rate::.cpu.data     0.021995                       # miss rate for WriteReq accesses
system.cpu.dcache.WriteReq_miss_rate::total     0.021995                       # miss rate for WriteReq accesses
system.cpu.dcache.WriteReq_avg_miss_latency::.cpu.data 92124.072865                       # average WriteReq miss latency
system.cpu.dcache.WriteReq_avg_miss_latency::total 92124.072865                       # average WriteReq miss latency
system.cpu.dcache.WriteReq_mshr_misses::.cpu.data       117971                       # number of WriteReq MSHR misses
system.cpu.dcache.WriteReq_mshr_misses::total       117971                       # number of WriteReq MSHR misses
system.cpu.dcache.WriteReq_mshr_miss_latency::.cpu.data  10632027000                       # number of WriteReq MSHR miss cycles
system.cpu.dcache.WriteReq_mshr_miss_latency::total  10632027000                       # number of WriteReq MSHR miss cycles
system.cpu.dcache.WriteReq_mshr_miss_rate::.cpu.data     0.021995                       # mshr miss rate for WriteReq accesses
system.cpu.dcache.WriteReq_mshr_miss_rate::total     0.021995                       # mshr miss rate for WriteReq accesses
system.cpu.dcache.WriteReq_avg_mshr_miss_latency::.cpu.data 90124.072865                       # average WriteReq mshr miss latency
system.cpu.dcache.WriteReq_avg_mshr_miss_latency::total 90124.072865                       # average WriteReq mshr miss latency
system.cpu.dcache.power_state.pwrStateResidencyTicks::UNDEFINED 1709063662000                       # Cumulative time (in ticks) in various power states
system.cpu.dcache.tags.tagsinuse          1023.809982                       # Cycle average of tags in use
system.cpu.dcache.tags.total_refs           116759001                       # Total number of references to valid blocks.
system.cpu.dcache.tags.sampled_refs           6608747                       # Sample count of references to valid blocks.
system.cpu.dcache.tags.avg_refs             17.667343                       # Average number of references to valid blocks.
system.cpu.dcache.tags.warmup_cycle            224000                       # Cycle when the warmup percentage was hit.
system.cpu.dcache.tags.occ_blocks::.cpu.data  1023.809982                       # Average occupied blocks per requestor
system.cpu.dcache.tags.occ_percent::.cpu.data     0.999814                       # Average percentage of cache occupancy
system.cpu.dcache.tags.occ_percent::total     0.999814                       # Average percentage of cache occupancy
system.cpu.dcache.tags.occ_task_id_blocks::1024         1024                       # Occupied blocks per task id
system.cpu.dcache.tags.age_task_id_blocks_1024::0           28                       # Occupied blocks per task id
system.cpu.dcache.tags.age_task_id_blocks_1024::1          110                       # Occupied blocks per task id
system.cpu.dcache.tags.age_task_id_blocks_1024::2          806                       # Occupied blocks per task id
system.cpu.dcache.tags.age_task_id_blocks_1024::3           80                       # Occupied blocks per task id
system.cpu.dcache.tags.occ_task_id_percent::1024            1                       # Percentage of cache occupancy per task id
system.cpu.dcache.tags.tag_accesses         240126749                       # Number of tag accesses
system.cpu.dcache.tags.data_accesses        240126749                       # Number of data accesses
system.cpu.dcache.tags.power_state.pwrStateResidencyTicks::UNDEFINED 1709063662000                       # Cumulative time (in ticks) in various power states
system.cpu.dtb.rdAccesses                   111395459                       # TLB accesses on read requests
system.cpu.dtb.wrAccesses                     5363566                       # TLB accesses on write requests
system.cpu.dtb.rdMisses                        115974                       # TLB misses on read requests
system.cpu.dtb.wrMisses                          1462                       # TLB misses on write requests
system.cpu.dtb.walker.power_state.pwrStateResidencyTicks::UNDEFINED 1709063662000                       # Cumulative time (in ticks) in various power states
system.cpu.icache.demand_hits::.cpu.inst    413236088                       # number of demand (read+write) hits
system.cpu.icache.demand_hits::total        413236088                       # number of demand (read+write) hits
system.cpu.icache.overall_hits::.cpu.inst    413236088                       # number of overall hits
system.cpu.icache.overall_hits::total       413236088                       # number of overall hits
system.cpu.icache.demand_misses::.cpu.inst        18740                       # number of demand (read+write) misses
system.cpu.icache.demand_misses::total          18740                       # number of demand (read+write) misses
system.cpu.icache.overall_misses::.cpu.inst        18740                       # number of overall misses
system.cpu.icache.overall_misses::total         18740                       # number of overall misses
system.cpu.icache.demand_miss_latency::.cpu.inst   1238750000                       # number of demand (read+write) miss cycles
system.cpu.icache.demand_miss_latency::total   1238750000                       # number of demand (read+write) miss cycles
system.cpu.icache.overall_miss_latency::.cpu.inst   1238750000                       # number of overall miss cycles
system.cpu.icache.overall_miss_latency::total   1238750000                       # number of overall miss cycles
system.cpu.icache.demand_accesses::.cpu.inst    413254828                       # number of demand (read+write) accesses
system.cpu.icache.demand_accesses::total    413254828                       # number of demand (read+write) accesses
system.cpu.icache.overall_accesses::.cpu.inst    413254828                       # number of overall (read+write) accesses
system.cpu.icache.overall_accesses::total    413254828                       # number of overall (read+write) accesses
system.cpu.icache.demand_miss_rate::.cpu.inst     0.000045                       # miss rate for demand accesses
system.cpu.icache.demand_miss_rate::total     0.000045                       # miss rate for demand accesses
system.cpu.icache.overall_miss_rate::.cpu.inst     0.000045                       # miss rate for overall accesses
system.cpu.icache.overall_miss_rate::total     0.000045                       # miss rate for overall accesses
system.cpu.icache.demand_avg_miss_latency::.cpu.inst 66101.921025                       # average overall miss latency
system.cpu.icache.demand_avg_miss_latency::total 66101.921025                       # average overall miss latency
system.cpu.icache.overall_avg_miss_latency::.cpu.inst 66101.921025                       # average overall miss latency
system.cpu.icache.overall_avg_miss_latency::total 66101.921025                       # average overall miss latency
system.cpu.icache.blocked_cycles::no_mshrs            0                       # number of cycles access was blocked
system.cpu.icache.blocked_cycles::no_targets            0                       # number of cycles access was blocked
system.cpu.icache.blocked::no_mshrs                 0                       # number of cycles access was blocked
system.cpu.icache.blocked::no_targets               0                       # number of cycles access was blocked
system.cpu.icache.avg_blocked_cycles::no_mshrs          nan                       # average number of cycles each access was blocked
system.cpu.icache.avg_blocked_cycles::no_targets          nan                       # average number of cycles each access was blocked
system.cpu.icache.demand_mshr_misses::.cpu.inst        18740                       # number of demand (read+write) MSHR misses
system.cpu.icache.demand_mshr_misses::total        18740                       # number of demand (read+write) MSHR misses
system.cpu.icache.overall_mshr_misses::.cpu.inst        18740                       # number of overall MSHR misses
system.cpu.icache.overall_mshr_misses::total        18740                       # number of overall MSHR misses
system.cpu.icache.demand_mshr_miss_latency::.cpu.inst   1201270000                       # number of demand (read+write) MSHR miss cycles
system.cpu.icache.demand_mshr_miss_latency::total   1201270000                       # number of demand (read+write) MSHR miss cycles
system.cpu.icache.overall_mshr_miss_latency::.cpu.inst   1201270000                       # number of overall MSHR miss cycles
system.cpu.icache.overall_mshr_miss_latency::total   1201270000                       # number of overall MSHR miss cycles
system.cpu.icache.demand_mshr_miss_rate::.cpu.inst     0.000045                       # mshr miss rate for demand accesses
system.cpu.icache.demand_mshr_miss_rate::total     0.000045                       # mshr miss rate for demand accesses
system.cpu.icache.overall_mshr_miss_rate::.cpu.inst     0.000045                       # mshr miss rate for overall accesses
system.cpu.icache.overall_mshr_miss_rate::total     0.000045                       # mshr miss rate for overall accesses
system.cpu.icache.demand_avg_mshr_miss_latency::.cpu.inst 64101.921025                       # average overall mshr miss latency
system.cpu.icache.demand_avg_mshr_miss_latency::total 64101.921025                       # average overall mshr miss latency
system.cpu.icache.overall_avg_mshr_miss_latency::.cpu.inst 64101.921025                       # average overall mshr miss latency
system.cpu.icache.overall_avg_mshr_miss_latency::total 64101.921025                       # average overall mshr miss latency
system.cpu.icache.replacements                  18484                       # number of replacements
system.cpu.icache.ReadReq_hits::.cpu.inst    413236088                       # number of ReadReq hits
system.cpu.icache.ReadReq_hits::total       413236088                       # number of ReadReq hits
system.cpu.icache.ReadReq_misses::.cpu.inst        18740                       # number of ReadReq misses
system.cpu.icache.ReadReq_misses::total         18740                       # number of ReadReq misses
system.cpu.icache.ReadReq_miss_latency::.cpu.inst   1238750000                       # number of ReadReq miss cycles
system.cpu.icache.ReadReq_miss_latency::total   1238750000                       # number of ReadReq miss cycles
system.cpu.icache.ReadReq_accesses::.cpu.inst    413254828                       # number of ReadReq accesses(hits+misses)
system.cpu.icache.ReadReq_accesses::total    413254828                       # number of ReadReq accesses(hits+misses)
system.cpu.icache.ReadReq_miss_rate::.cpu.inst     0.000045                       # miss rate for ReadReq accesses
system.cpu.icache.ReadReq_miss_rate::total     0.000045                       # miss rate for ReadReq accesses
system.cpu.icache.ReadReq_avg_miss_latency::.cpu.inst 66101.921025                       # average ReadReq miss latency
system.cpu.icache.ReadReq_avg_miss_latency::total 66101.921025                       # average ReadReq miss latency
system.cpu.icache.ReadReq_mshr_misses::.cpu.inst        18740                       # number of ReadReq MSHR misses
system.cpu.icache.ReadReq_mshr_misses::total        18740                       # number of ReadReq MSHR misses
system.cpu.icache.ReadReq_mshr_miss_latency::.cpu.inst   1201270000                       # number of ReadReq MSHR miss cycles
system.cpu.icache.ReadReq_mshr_miss_latency::total   1201270000                       # number of ReadReq MSHR miss cycles
system.cpu.icache.ReadReq_mshr_miss_rate::.cpu.inst     0.000045                       # mshr miss rate for ReadReq accesses
system.cpu.icache.ReadReq_mshr_miss_rate::total     0.000045                       # mshr miss rate for ReadReq accesses
system.cpu.icache.ReadReq_avg_mshr_miss_latency::.cpu.inst 64101.921025                       # average ReadReq mshr miss latency
system.cpu.icache.ReadReq_avg_mshr_miss_latency::total 64101.921025                       # average ReadReq mshr miss latency
system.cpu.icache.power_state.pwrStateResidencyTicks::UNDEFINED 1709063662000                       # Cumulative time (in ticks) in various power states
system.cpu.icache.tags.tagsinuse           255.992327                       # Cycle average of tags in use
system.cpu.icache.tags.total_refs           413254828                       # Total number of references to valid blocks.
system.cpu.icache.tags.sampled_refs             18740                       # Sample count of references to valid blocks.
system.cpu.icache.tags.avg_refs          22052.018570                       # Average number of references to valid blocks.
system.cpu.icache.tags.warmup_cycle            107000                       # Cycle when the warmup percentage was hit.
system.cpu.icache.tags.occ_blocks::.cpu.inst   255.992327                       # Average occupied blocks per requestor
system.cpu.icache.tags.occ_percent::.cpu.inst     0.999970                       # Average percentage of cache occupancy
system.cpu.icache.tags.occ_percent::total     0.999970                       # Average percentage of cache occupancy
system.cpu.icache.tags.occ_task_id_blocks::1024          256                       # Occupied blocks per task id
system.cpu.icache.tags.age_task_id_blocks_1024::0           35                       # Occupied blocks per task id
system.cpu.icache.tags.age_task_id_blocks_1024::1          116                       # Occupied blocks per task id
system.cpu.icache.tags.age_task_id_blocks_1024::2           98                       # Occupied blocks per task id
system.cpu.icache.tags.age_task_id_blocks_1024::4            7                       # Occupied blocks per task id
system.cpu.icache.tags.occ_task_id_percent::1024            1                       # Percentage of cache occupancy per task id
system.cpu.icache.tags.tag_accesses         826528396                       # Number of tag accesses
system.cpu.icache.tags.data_accesses        826528396                       # Number of data accesses
system.cpu.icache.tags.power_state.pwrStateResidencyTicks::UNDEFINED 1709063662000                       # Cumulative time (in ticks) in various power states
system.cpu.interrupts.clk_domain.clock          16000                       # Clock period in ticks
system.cpu.itb.rdAccesses                           0                       # TLB accesses on read requests
system.cpu.itb.wrAccesses                   413254828                       # TLB accesses on write requests
system.cpu.itb.rdMisses                             0                       # TLB misses on read requests
system.cpu.itb.wrMisses                           110                       # TLB misses on write requests
system.cpu.itb.walker.power_state.pwrStateResidencyTicks::UNDEFINED 1709063662000                       # Cumulative time (in ticks) in various power states
system.cpu.power_state.pwrStateResidencyTicks::ON 1709063662000                       # Cumulative time (in ticks) in various power states
system.cpu.thread_0.numInsts                        0                       # Number of Instructions committed
system.cpu.thread_0.numOps                          0                       # Number of Ops committed
system.cpu.thread_0.numMemRefs                      0                       # Number of Memory References
system.l2bus.trans_dist::ReadResp             6509516                       # Transaction distribution
system.l2bus.trans_dist::WritebackDirty        711404                       # Transaction distribution
system.l2bus.trans_dist::CleanEvict          12453192                       # Transaction distribution
system.l2bus.trans_dist::ReadExReq             117971                       # Transaction distribution
system.l2bus.trans_dist::ReadExResp            117971                       # Transaction distribution
system.l2bus.trans_dist::ReadSharedReq        6509516                       # Transaction distribution
system.l2bus.pkt_count_system.cpu.icache.mem_side_port::system.l2cache.cpu_side_port        55964                       # Packet count per connected requestor and responder (bytes)
system.l2bus.pkt_count_system.cpu.dcache.mem_side_port::system.l2cache.cpu_side_port     19825217                       # Packet count per connected requestor and responder (bytes)
system.l2bus.pkt_count::total                19881181                       # Packet count per connected requestor and responder (bytes)
system.l2bus.pkt_size_system.cpu.icache.mem_side_port::system.l2cache.cpu_side_port      1199360                       # Cumulative packet size per connected requestor and responder (bytes)
system.l2bus.pkt_size_system.cpu.dcache.mem_side_port::system.l2cache.cpu_side_port    447554496                       # Cumulative packet size per connected requestor and responder (bytes)
system.l2bus.pkt_size::total                448753856                       # Cumulative packet size per connected requestor and responder (bytes)
system.l2bus.snoops                           6538389                       # Total snoops (count)
system.l2bus.snoopTraffic                    20935168                       # Total snoop traffic (bytes)
system.l2bus.snoop_fanout::samples           13165876                       # Request fanout histogram
system.l2bus.snoop_fanout::mean              0.001784                       # Request fanout histogram
system.l2bus.snoop_fanout::stdev             0.042205                       # Request fanout histogram
system.l2bus.snoop_fanout::underflows               0      0.00%      0.00% # Request fanout histogram
system.l2bus.snoop_fanout::0                 13142382     99.82%     99.82% # Request fanout histogram
system.l2bus.snoop_fanout::1                    23494      0.18%    100.00% # Request fanout histogram
system.l2bus.snoop_fanout::2                        0      0.00%    100.00% # Request fanout histogram
system.l2bus.snoop_fanout::overflows                0      0.00%    100.00% # Request fanout histogram
system.l2bus.snoop_fanout::min_value                0                       # Request fanout histogram
system.l2bus.snoop_fanout::max_value                1                       # Request fanout histogram
system.l2bus.snoop_fanout::total             13165876                       # Request fanout histogram
system.l2bus.power_state.pwrStateResidencyTicks::UNDEFINED 1709063662000                       # Cumulative time (in ticks) in various power states
system.l2bus.reqLayer0.occupancy          14022278000                       # Layer occupancy (ticks)
system.l2bus.reqLayer0.utilization                0.8                       # Layer utilization (%)
system.l2bus.respLayer0.occupancy            56220000                       # Layer occupancy (ticks)
system.l2bus.respLayer0.utilization               0.0                       # Layer utilization (%)
system.l2bus.respLayer1.occupancy         19826241000                       # Layer occupancy (ticks)
system.l2bus.respLayer1.utilization               1.2                       # Layer utilization (%)
system.l2cache.demand_hits::.cpu.inst            9009                       # number of demand (read+write) hits
system.l2cache.demand_hits::.cpu.data           95681                       # number of demand (read+write) hits
system.l2cache.demand_hits::total              104690                       # number of demand (read+write) hits
system.l2cache.overall_hits::.cpu.inst           9009                       # number of overall hits
system.l2cache.overall_hits::.cpu.data          95681                       # number of overall hits
system.l2cache.overall_hits::total             104690                       # number of overall hits
system.l2cache.demand_misses::.cpu.inst          9731                       # number of demand (read+write) misses
system.l2cache.demand_misses::.cpu.data       6513066                       # number of demand (read+write) misses
system.l2cache.demand_misses::total           6522797                       # number of demand (read+write) misses
system.l2cache.overall_misses::.cpu.inst         9731                       # number of overall misses
system.l2cache.overall_misses::.cpu.data      6513066                       # number of overall misses
system.l2cache.overall_misses::total          6522797                       # number of overall misses
system.l2cache.demand_miss_latency::.cpu.inst    955834000                       # number of demand (read+write) miss cycles
system.l2cache.demand_miss_latency::.cpu.data 626027508000                       # number of demand (read+write) miss cycles
system.l2cache.demand_miss_latency::total 626983342000                       # number of demand (read+write) miss cycles
system.l2cache.overall_miss_latency::.cpu.inst    955834000                       # number of overall miss cycles
system.l2cache.overall_miss_latency::.cpu.data 626027508000                       # number of overall miss cycles
system.l2cache.overall_miss_latency::total 626983342000                       # number of overall miss cycles
system.l2cache.demand_accesses::.cpu.inst        18740                       # number of demand (read+write) accesses
system.l2cache.demand_accesses::.cpu.data      6608747                       # number of demand (read+write) accesses
system.l2cache.demand_accesses::total         6627487                       # number of demand (read+write) accesses
system.l2cache.overall_accesses::.cpu.inst        18740                       # number of overall (read+write) accesses
system.l2cache.overall_accesses::.cpu.data      6608747                       # number of overall (read+write) accesses
system.l2cache.overall_accesses::total        6627487                       # number of overall (read+write) accesses
system.l2cache.demand_miss_rate::.cpu.inst     0.519264                       # miss rate for demand accesses
system.l2cache.demand_miss_rate::.cpu.data     0.985522                       # miss rate for demand accesses
system.l2cache.demand_miss_rate::total       0.984204                       # miss rate for demand accesses
system.l2cache.overall_miss_rate::.cpu.inst     0.519264                       # miss rate for overall accesses
system.l2cache.overall_miss_rate::.cpu.data     0.985522                       # miss rate for overall accesses
system.l2cache.overall_miss_rate::total      0.984204                       # miss rate for overall accesses
system.l2cache.demand_avg_miss_latency::.cpu.inst 98225.670537                       # average overall miss latency
system.l2cache.demand_avg_miss_latency::.cpu.data 96118.710911                       # average overall miss latency
system.l2cache.demand_avg_miss_latency::total 96121.854168                       # average overall miss latency
system.l2cache.overall_avg_miss_latency::.cpu.inst 98225.670537                       # average overall miss latency
system.l2cache.overall_avg_miss_latency::.cpu.data 96118.710911                       # average overall miss latency
system.l2cache.overall_avg_miss_latency::total 96121.854168                       # average overall miss latency
system.l2cache.blocked_cycles::no_mshrs             0                       # number of cycles access was blocked
system.l2cache.blocked_cycles::no_targets            0                       # number of cycles access was blocked
system.l2cache.blocked::no_mshrs                    0                       # number of cycles access was blocked
system.l2cache.blocked::no_targets                  0                       # number of cycles access was blocked
system.l2cache.avg_blocked_cycles::no_mshrs          nan                       # average number of cycles each access was blocked
system.l2cache.avg_blocked_cycles::no_targets          nan                       # average number of cycles each access was blocked
system.l2cache.writebacks::.writebacks         327112                       # number of writebacks
system.l2cache.writebacks::total               327112                       # number of writebacks
system.l2cache.demand_mshr_misses::.cpu.inst         9731                       # number of demand (read+write) MSHR misses
system.l2cache.demand_mshr_misses::.cpu.data      6513066                       # number of demand (read+write) MSHR misses
system.l2cache.demand_mshr_misses::total      6522797                       # number of demand (read+write) MSHR misses
system.l2cache.overall_mshr_misses::.cpu.inst         9731                       # number of overall MSHR misses
system.l2cache.overall_mshr_misses::.cpu.data      6513066                       # number of overall MSHR misses
system.l2cache.overall_mshr_misses::total      6522797                       # number of overall MSHR misses
system.l2cache.demand_mshr_miss_latency::.cpu.inst    761214000                       # number of demand (read+write) MSHR miss cycles
system.l2cache.demand_mshr_miss_latency::.cpu.data 495766188000                       # number of demand (read+write) MSHR miss cycles
system.l2cache.demand_mshr_miss_latency::total 496527402000                       # number of demand (read+write) MSHR miss cycles
system.l2cache.overall_mshr_miss_latency::.cpu.inst    761214000                       # number of overall MSHR miss cycles
system.l2cache.overall_mshr_miss_latency::.cpu.data 495766188000                       # number of overall MSHR miss cycles
system.l2cache.overall_mshr_miss_latency::total 496527402000                       # number of overall MSHR miss cycles
system.l2cache.demand_mshr_miss_rate::.cpu.inst     0.519264                       # mshr miss rate for demand accesses
system.l2cache.demand_mshr_miss_rate::.cpu.data     0.985522                       # mshr miss rate for demand accesses
system.l2cache.demand_mshr_miss_rate::total     0.984204                       # mshr miss rate for demand accesses
system.l2cache.overall_mshr_miss_rate::.cpu.inst     0.519264                       # mshr miss rate for overall accesses
system.l2cache.overall_mshr_miss_rate::.cpu.data     0.985522                       # mshr miss rate for overall accesses
system.l2cache.overall_mshr_miss_rate::total     0.984204                       # mshr miss rate for overall accesses
system.l2cache.demand_avg_mshr_miss_latency::.cpu.inst 78225.670537                       # average overall mshr miss latency
system.l2cache.demand_avg_mshr_miss_latency::.cpu.data 76118.710911                       # average overall mshr miss latency
system.l2cache.demand_avg_mshr_miss_latency::total 76121.854168                       # average overall mshr miss latency
system.l2cache.overall_avg_mshr_miss_latency::.cpu.inst 78225.670537                       # average overall mshr miss latency
system.l2cache.overall_avg_mshr_miss_latency::.cpu.data 76118.710911                       # average overall mshr miss latency
system.l2cache.overall_avg_mshr_miss_latency::total 76121.854168                       # average overall mshr miss latency
system.l2cache.replacements                   6538389                       # number of replacements
system.l2cache.WritebackDirty_hits::.writebacks       384292                       # number of WritebackDirty hits
system.l2cache.WritebackDirty_hits::total       384292                       # number of WritebackDirty hits
system.l2cache.WritebackDirty_accesses::.writebacks       384292                       # number of WritebackDirty accesses(hits+misses)
system.l2cache.WritebackDirty_accesses::total       384292                       # number of WritebackDirty accesses(hits+misses)
system.l2cache.CleanEvict_mshr_misses::.writebacks         3717                       # number of CleanEvict MSHR misses
system.l2cache.CleanEvict_mshr_misses::total         3717                       # number of CleanEvict MSHR misses
system.l2cache.CleanEvict_mshr_miss_rate::.writebacks          inf                       # mshr miss rate for CleanEvict accesses
system.l2cache.CleanEvict_mshr_miss_rate::total          inf                       # mshr miss rate for CleanEvict accesses
system.l2cache.ReadExReq_hits::.cpu.data        26462                       # number of ReadExReq hits
system.l2cache.ReadExReq_hits::total            26462                       # number of ReadExReq hits
system.l2cache.ReadExReq_misses::.cpu.data        91509                       # number of ReadExReq misses
system.l2cache.ReadExReq_misses::total          91509                       # number of ReadExReq misses
system.l2cache.ReadExReq_miss_latency::.cpu.data   9722080000                       # number of ReadExReq miss cycles
system.l2cache.ReadExReq_miss_latency::total   9722080000                       # number of ReadExReq miss cycles
system.l2cache.ReadExReq_accesses::.cpu.data       117971                       # number of ReadExReq accesses(hits+misses)
system.l2cache.ReadExReq_accesses::total       117971                       # number of ReadExReq accesses(hits+misses)
system.l2cache.ReadExReq_miss_rate::.cpu.data     0.775691                       # miss rate for ReadExReq accesses
system.l2cache.ReadExReq_miss_rate::total     0.775691                       # miss rate for ReadExReq accesses
system.l2cache.ReadExReq_avg_miss_latency::.cpu.data 106241.790425                       # average ReadExReq miss latency
system.l2cache.ReadExReq_avg_miss_latency::total 106241.790425                       # average ReadExReq miss latency
system.l2cache.ReadExReq_mshr_misses::.cpu.data        91509                       # number of ReadExReq MSHR misses
system.l2cache.ReadExReq_mshr_misses::total        91509                       # number of ReadExReq MSHR misses
system.l2cache.ReadExReq_mshr_miss_latency::.cpu.data   7891900000                       # number of ReadExReq MSHR miss cycles
system.l2cache.ReadExReq_mshr_miss_latency::total   7891900000                       # number of ReadExReq MSHR miss cycles
system.l2cache.ReadExReq_mshr_miss_rate::.cpu.data     0.775691                       # mshr miss rate for ReadExReq accesses
system.l2cache.ReadExReq_mshr_miss_rate::total     0.775691                       # mshr miss rate for ReadExReq accesses
system.l2cache.ReadExReq_avg_mshr_miss_latency::.cpu.data 86241.790425                       # average ReadExReq mshr miss latency
system.l2cache.ReadExReq_avg_mshr_miss_latency::total 86241.790425                       # average ReadExReq mshr miss latency
system.l2cache.ReadSharedReq_hits::.cpu.inst         9009                       # number of ReadSharedReq hits
system.l2cache.ReadSharedReq_hits::.cpu.data        69219                       # number of ReadSharedReq hits
system.l2cache.ReadSharedReq_hits::total        78228                       # number of ReadSharedReq hits
system.l2cache.ReadSharedReq_misses::.cpu.inst         9731                       # number of ReadSharedReq misses
system.l2cache.ReadSharedReq_misses::.cpu.data      6421557                       # number of ReadSharedReq misses
system.l2cache.ReadSharedReq_misses::total      6431288                       # number of ReadSharedReq misses
system.l2cache.ReadSharedReq_miss_latency::.cpu.inst    955834000                       # number of ReadSharedReq miss cycles
system.l2cache.ReadSharedReq_miss_latency::.cpu.data 616305428000                       # number of ReadSharedReq miss cycles
system.l2cache.ReadSharedReq_miss_latency::total 617261262000                       # number of ReadSharedReq miss cycles
system.l2cache.ReadSharedReq_accesses::.cpu.inst        18740                       # number of ReadSharedReq accesses(hits+misses)
system.l2cache.ReadSharedReq_accesses::.cpu.data      6490776                       # number of ReadSharedReq accesses(hits+misses)
system.l2cache.ReadSharedReq_accesses::total      6509516                       # number of ReadSharedReq accesses(hits+misses)
system.l2cache.ReadSharedReq_miss_rate::.cpu.inst     0.519264                       # miss rate for ReadSharedReq accesses
system.l2cache.ReadSharedReq_miss_rate::.cpu.data     0.989336                       # miss rate for ReadSharedReq accesses
system.l2cache.ReadSharedReq_miss_rate::total     0.987983                       # miss rate for ReadSharedReq accesses
system.l2cache.ReadSharedReq_avg_miss_latency::.cpu.inst 98225.670537                       # average ReadSharedReq miss latency
system.l2cache.ReadSharedReq_avg_miss_latency::.cpu.data 95974.454171                       # average ReadSharedReq miss latency
system.l2cache.ReadSharedReq_avg_miss_latency::total 95977.860422                       # average ReadSharedReq miss latency
system.l2cache.ReadSharedReq_mshr_misses::.cpu.inst         9731                       # number of ReadSharedReq MSHR misses
system.l2cache.ReadSharedReq_mshr_misses::.cpu.data      6421557                       # number of ReadSharedReq MSHR misses
system.l2cache.ReadSharedReq_mshr_misses::total      6431288                       # number of ReadSharedReq MSHR misses
system.l2cache.ReadSharedReq_mshr_miss_latency::.cpu.inst    761214000                       # number of ReadSharedReq MSHR miss cycles
system.l2cache.ReadSharedReq_mshr_miss_latency::.cpu.data 487874288000                       # number of ReadSharedReq MSHR miss cycles
system.l2cache.ReadSharedReq_mshr_miss_latency::total 488635502000                       # number of ReadSharedReq MSHR miss cycles
system.l2cache.ReadSharedReq_mshr_miss_rate::.cpu.inst     0.519264                       # mshr miss rate for ReadSharedReq accesses
system.l2cache.ReadSharedReq_mshr_miss_rate::.cpu.data     0.989336                       # mshr miss rate for ReadSharedReq accesses
system.l2cache.ReadSharedReq_mshr_miss_rate::total     0.987983                       # mshr miss rate for ReadSharedReq accesses
system.l2cache.ReadSharedReq_avg_mshr_miss_latency::.cpu.inst 78225.670537                       # average ReadSharedReq mshr miss latency
system.l2cache.ReadSharedReq_avg_mshr_miss_latency::.cpu.data 75974.454171                       # average ReadSharedReq mshr miss latency
system.l2cache.ReadSharedReq_avg_mshr_miss_latency::total 75977.860422                       # average ReadSharedReq mshr miss latency
system.l2cache.power_state.pwrStateResidencyTicks::UNDEFINED 1709063662000                       # Cumulative time (in ticks) in various power states
system.l2cache.tags.tagsinuse             4092.906216                       # Cycle average of tags in use
system.l2cache.tags.total_refs               13249977                       # Total number of references to valid blocks.
system.l2cache.tags.sampled_refs              6542485                       # Sample count of references to valid blocks.
system.l2cache.tags.avg_refs                 2.025221                       # Average number of references to valid blocks.
system.l2cache.tags.warmup_cycle                86000                       # Cycle when the warmup percentage was hit.
system.l2cache.tags.occ_blocks::.writebacks     9.359802                       # Average occupied blocks per requestor
system.l2cache.tags.occ_blocks::.cpu.inst     5.629586                       # Average occupied blocks per requestor
system.l2cache.tags.occ_blocks::.cpu.data  4077.916828                       # Average occupied blocks per requestor
system.l2cache.tags.occ_percent::.writebacks     0.002285                       # Average percentage of cache occupancy
system.l2cache.tags.occ_percent::.cpu.inst     0.001374                       # Average percentage of cache occupancy
system.l2cache.tags.occ_percent::.cpu.data     0.995585                       # Average percentage of cache occupancy
system.l2cache.tags.occ_percent::total       0.999245                       # Average percentage of cache occupancy
system.l2cache.tags.occ_task_id_blocks::1024         4096                       # Occupied blocks per task id
system.l2cache.tags.age_task_id_blocks_1024::0           60                       # Occupied blocks per task id
system.l2cache.tags.age_task_id_blocks_1024::1          155                       # Occupied blocks per task id
system.l2cache.tags.age_task_id_blocks_1024::2         2173                       # Occupied blocks per task id
system.l2cache.tags.age_task_id_blocks_1024::3         1708                       # Occupied blocks per task id
system.l2cache.tags.occ_task_id_percent::1024            1                       # Percentage of cache occupancy per task id
system.l2cache.tags.tag_accesses            112572037                       # Number of tag accesses
system.l2cache.tags.data_accesses           112572037                       # Number of data accesses
system.l2cache.tags.power_state.pwrStateResidencyTicks::UNDEFINED 1709063662000                       # Cumulative time (in ticks) in various power states
system.mem_ctrl.avgPriority_.writebacks::samples    327112.00                       # Average QoS priority value for accepted requests
system.mem_ctrl.avgPriority_.cpu.inst::samples      9731.00                       # Average QoS priority value for accepted requests
system.mem_ctrl.avgPriority_.cpu.data::samples   6504025.00                       # Average QoS priority value for accepted requests
system.mem_ctrl.priorityMinLatency       0.000000018750                       # per QoS priority minimum request to response latency (s)
system.mem_ctrl.priorityMaxLatency       0.003796120500                       # per QoS priority maximum request to response latency (s)
system.mem_ctrl.numReadWriteTurnArounds         18520                       # Number of turnarounds from READ to WRITE
system.mem_ctrl.numWriteReadTurnArounds         18520                       # Number of turnarounds from WRITE to READ
system.mem_ctrl.numStayReadState             13790008                       # Number of times bus staying in READ state
system.mem_ctrl.numStayWriteState              308694                       # Number of times bus staying in WRITE state
system.mem_ctrl.readReqs                      6522797                       # Number of read requests accepted
system.mem_ctrl.writeReqs                      327112                       # Number of write requests accepted
system.mem_ctrl.readBursts                    6522797                       # Number of controller read bursts, including those serviced by the write queue
system.mem_ctrl.writeBursts                    327112                       # Number of controller write bursts, including those merged in the write queue
system.mem_ctrl.servicedByWrQ                    9041                       # Number of controller read bursts serviced by the write queue
system.mem_ctrl.mergedWrBursts                      0                       # Number of controller write bursts merged with an existing one
system.mem_ctrl.neitherReadNorWriteReqs             0                       # Number of requests that are neither read nor write
system.mem_ctrl.avgRdQLen                        1.00                       # Average read queue length when enqueuing
system.mem_ctrl.avgWrQLen                       23.20                       # Average write queue length when enqueuing
system.mem_ctrl.numRdRetry                          0                       # Number of times read queue was full causing retry
system.mem_ctrl.numWrRetry                          0                       # Number of times write queue was full causing retry
system.mem_ctrl.readPktSize::0                      0                       # Read request sizes (log2)
system.mem_ctrl.readPktSize::1                      0                       # Read request sizes (log2)
system.mem_ctrl.readPktSize::2                      0                       # Read request sizes (log2)
system.mem_ctrl.readPktSize::3                      0                       # Read request sizes (log2)
system.mem_ctrl.readPktSize::4                      0                       # Read request sizes (log2)
system.mem_ctrl.readPktSize::5                      0                       # Read request sizes (log2)
system.mem_ctrl.readPktSize::6                6522797                       # Read request sizes (log2)
system.mem_ctrl.writePktSize::0                     0                       # Write request sizes (log2)
system.mem_ctrl.writePktSize::1                     0                       # Write request sizes (log2)
system.mem_ctrl.writePktSize::2                     0                       # Write request sizes (log2)
system.mem_ctrl.writePktSize::3                     0                       # Write request sizes (log2)
system.mem_ctrl.writePktSize::4                     0                       # Write request sizes (log2)
system.mem_ctrl.writePktSize::5                     0                       # Write request sizes (log2)
system.mem_ctrl.writePktSize::6                327112                       # Write request sizes (log2)
system.mem_ctrl.rdQLenPdf::0                  6513674                       # What read queue length does an incoming req see
system.mem_ctrl.rdQLenPdf::1                       82                       # What read queue length does an incoming req see
system.mem_ctrl.rdQLenPdf::2                        0                       # What read queue length does an incoming req see
system.mem_ctrl.rdQLenPdf::3                        0                       # What read queue length does an incoming req see
system.mem_ctrl.rdQLenPdf::4                        0                       # What read queue length does an incoming req see
system.mem_ctrl.rdQLenPdf::5                        0                       # What read queue length does an incoming req see
system.mem_ctrl.rdQLenPdf::6                        0                       # What read queue length does an incoming req see
system.mem_ctrl.rdQLenPdf::7                        0                       # What read queue length does an incoming req see
system.mem_ctrl.rdQLenPdf::8                        0                       # What read queue length does an incoming req see
system.mem_ctrl.rdQLenPdf::9                        0                       # What read queue length does an incoming req see
system.mem_ctrl.rdQLenPdf::10                       0                       # What read queue length does an incoming req see
system.mem_ctrl.rdQLenPdf::11                       0                       # What read queue length does an incoming req see
system.mem_ctrl.rdQLenPdf::12                       0                       # What read queue length does an incoming req see
system.mem_ctrl.rdQLenPdf::13                       0                       # What read queue length does an incoming req see
system.mem_ctrl.rdQLenPdf::14                       0                       # What read queue length does an incoming req see
system.mem_ctrl.rdQLenPdf::15                       0                       # What read queue length does an incoming req see
system.mem_ctrl.rdQLenPdf::16                       0                       # What read queue length does an incoming req see
system.mem_ctrl.rdQLenPdf::17                       0                       # What read queue length does an incoming req see
system.mem_ctrl.rdQLenPdf::18                       0                       # What read queue length does an incoming req see
system.mem_ctrl.rdQLenPdf::19                       0                       # What read queue length does an incoming req see
system.mem_ctrl.rdQLenPdf::20                       0                       # What read queue length does an incoming req see
system.mem_ctrl.rdQLenPdf::21                       0                       # What read queue length does an incoming req see
system.mem_ctrl.rdQLenPdf::22                       0                       # What read queue length does an incoming req see
system.mem_ctrl.rdQLenPdf::23                       0                       # What read queue length does an incoming req see
system.mem_ctrl.rdQLenPdf::24                       0                       # What read queue length does an incoming req see
system.mem_ctrl.rdQLenPdf::25                       0                       # What read queue length does an incoming req see
system.mem_ctrl.rdQLenPdf::26                       0                       # What read queue length does an incoming req see
system.mem_ctrl.rdQLenPdf::27                       0                       # What read queue length does an incoming req see
system.mem_ctrl.rdQLenPdf::28                       0                       # What read queue length does an incoming req see
system.mem_ctrl.rdQLenPdf::29                       0                       # What read queue length does an incoming req see
system.mem_ctrl.rdQLenPdf::30                       0                       # What read queue length does an incoming req see
system.mem_ctrl.rdQLenPdf::31                       0                       # What read queue length does an incoming req see
system.mem_ctrl.wrQLenPdf::0                        1                       # What write queue length does an incoming req see
system.mem_ctrl.wrQLenPdf::1                        1                       # What write queue length does an incoming req see
system.mem_ctrl.wrQLenPdf::2                        1                       # What write queue length does an incoming req see
system.mem_ctrl.wrQLenPdf::3                        1                       # What write queue length does an incoming req see
system.mem_ctrl.wrQLenPdf::4                        1                       # What write queue length does an incoming req see
system.mem_ctrl.wrQLenPdf::5                        1                       # What write queue length does an incoming req see
system.mem_ctrl.wrQLenPdf::6                        1                       # What write queue length does an incoming req see
system.mem_ctrl.wrQLenPdf::7                        1                       # What write queue length does an incoming req see
system.mem_ctrl.wrQLenPdf::8                        1                       # What write queue length does an incoming req see
system.mem_ctrl.wrQLenPdf::9                        1                       # What write queue length does an incoming req see
system.mem_ctrl.wrQLenPdf::10                       1                       # What write queue length does an incoming req see
system.mem_ctrl.wrQLenPdf::11                       1                       # What write queue length does an incoming req see
system.mem_ctrl.wrQLenPdf::12                       1                       # What write queue length does an incoming req see
system.mem_ctrl.wrQLenPdf::13                       1                       # What write queue length does an incoming req see
system.mem_ctrl.wrQLenPdf::14                       1                       # What write queue length does an incoming req see
system.mem_ctrl.wrQLenPdf::15                   15345                       # What write queue length does an incoming req see
system.mem_ctrl.wrQLenPdf::16                   15410                       # What write queue length does an incoming req see
system.mem_ctrl.wrQLenPdf::17                   18517                       # What write queue length does an incoming req see
system.mem_ctrl.wrQLenPdf::18                   18523                       # What write queue length does an incoming req see
system.mem_ctrl.wrQLenPdf::19                   18521                       # What write queue length does an incoming req see
system.mem_ctrl.wrQLenPdf::20                   18522                       # What write queue length does an incoming req see
system.mem_ctrl.wrQLenPdf::21                   18521                       # What write queue length does an incoming req see
system.mem_ctrl.wrQLenPdf::22                   18521                       # What write queue length does an incoming req see
system.mem_ctrl.wrQLenPdf::23                   18523                       # What write queue length does an incoming req see
system.mem_ctrl.wrQLenPdf::24                   18521                       # What write queue length does an incoming req see
system.mem_ctrl.wrQLenPdf::25                   18521                       # What write queue length does an incoming req see
system.mem_ctrl.wrQLenPdf::26                   18524                       # What write queue length does an incoming req see
system.mem_ctrl.wrQLenPdf::27                   18521                       # What write queue length does an incoming req see
system.mem_ctrl.wrQLenPdf::28                   18521                       # What write queue length does an incoming req see
system.mem_ctrl.wrQLenPdf::29                   18524                       # What write queue length does an incoming req see
system.mem_ctrl.wrQLenPdf::30                   18521                       # What write queue length does an incoming req see
system.mem_ctrl.wrQLenPdf::31                   18521                       # What write queue length does an incoming req see
system.mem_ctrl.wrQLenPdf::32                   18520                       # What write queue length does an incoming req see
system.mem_ctrl.wrQLenPdf::33                       0                       # What write queue length does an incoming req see
system.mem_ctrl.wrQLenPdf::34                       0                       # What write queue length does an incoming req see
system.mem_ctrl.wrQLenPdf::35                       0                       # What write queue length does an incoming req see
system.mem_ctrl.wrQLenPdf::36                       0                       # What write queue length does an incoming req see
system.mem_ctrl.wrQLenPdf::37                       0                       # What write queue length does an incoming req see
system.mem_ctrl.wrQLenPdf::38                       0                       # What write queue length does an incoming req see
system.mem_ctrl.wrQLenPdf::39                       0                       # What write queue length does an incoming req see
system.mem_ctrl.wrQLenPdf::40                       0                       # What write queue length does an incoming req see
system.mem_ctrl.wrQLenPdf::41                       0                       # What write queue length does an incoming req see
system.mem_ctrl.wrQLenPdf::42                       0                       # What write queue length does an incoming req see
system.mem_ctrl.wrQLenPdf::43                       0                       # What write queue length does an incoming req see
system.mem_ctrl.wrQLenPdf::44                       0                       # What write queue length does an incoming req see
system.mem_ctrl.wrQLenPdf::45                       0                       # What write queue length does an incoming req see
system.mem_ctrl.wrQLenPdf::46                       0                       # What write queue length does an incoming req see
system.mem_ctrl.wrQLenPdf::47                       0                       # What write queue length does an incoming req see
system.mem_ctrl.wrQLenPdf::48                       0                       # What write queue length does an incoming req see
system.mem_ctrl.wrQLenPdf::49                       0                       # What write queue length does an incoming req see
system.mem_ctrl.wrQLenPdf::50                       0                       # What write queue length does an incoming req see
system.mem_ctrl.wrQLenPdf::51                       0                       # What write queue length does an incoming req see
system.mem_ctrl.wrQLenPdf::52                       0                       # What write queue length does an incoming req see
system.mem_ctrl.wrQLenPdf::53                       0                       # What write queue length does an incoming req see
system.mem_ctrl.wrQLenPdf::54                       0                       # What write queue length does an incoming req see
system.mem_ctrl.wrQLenPdf::55                       0                       # What write queue length does an incoming req see
system.mem_ctrl.wrQLenPdf::56                       0                       # What write queue length does an incoming req see
system.mem_ctrl.wrQLenPdf::57                       0                       # What write queue length does an incoming req see
system.mem_ctrl.wrQLenPdf::58                       0                       # What write queue length does an incoming req see
system.mem_ctrl.wrQLenPdf::59                       0                       # What write queue length does an incoming req see
system.mem_ctrl.wrQLenPdf::60                       0                       # What write queue length does an incoming req see
system.mem_ctrl.wrQLenPdf::61                       0                       # What write queue length does an incoming req see
system.mem_ctrl.wrQLenPdf::62                       0                       # What write queue length does an incoming req see
system.mem_ctrl.wrQLenPdf::63                       0                       # What write queue length does an incoming req see
system.mem_ctrl.rdPerTurnAround::samples        18520                       # Reads before turning the bus around for writes
system.mem_ctrl.rdPerTurnAround::mean      351.523002                       # Reads before turning the bus around for writes
system.mem_ctrl.rdPerTurnAround::gmean      56.790811                       # Reads before turning the bus around for writes
system.mem_ctrl.rdPerTurnAround::stdev     865.423946                       # Reads before turning the bus around for writes
system.mem_ctrl.rdPerTurnAround::0-255          15088     81.47%     81.47% # Reads before turning the bus around for writes
system.mem_ctrl.rdPerTurnAround::256-511          417      2.25%     83.72% # Reads before turning the bus around for writes
system.mem_ctrl.rdPerTurnAround::768-1023          382      2.06%     85.78% # Reads before turning the bus around for writes
system.mem_ctrl.rdPerTurnAround::1024-1279          224      1.21%     86.99% # Reads before turning the bus around for writes
system.mem_ctrl.rdPerTurnAround::1280-1535          124      0.67%     87.66% # Reads before turning the bus around for writes
system.mem_ctrl.rdPerTurnAround::1536-1791         1869     10.09%     97.75% # Reads before turning the bus around for writes
system.mem_ctrl.rdPerTurnAround::4352-4607            1      0.01%     97.76% # Reads before turning the bus around for writes
system.mem_ctrl.rdPerTurnAround::4608-4863            1      0.01%     97.76% # Reads before turning the bus around for writes
system.mem_ctrl.rdPerTurnAround::4864-5119          411      2.22%     99.98% # Reads before turning the bus around for writes
system.mem_ctrl.rdPerTurnAround::5120-5375            3      0.02%    100.00% # Reads before turning the bus around for writes
system.mem_ctrl.rdPerTurnAround::total          18520                       # Reads before turning the bus around for writes
system.mem_ctrl.wrPerTurnAround::samples        18520                       # Writes before turning the bus around for reads
system.mem_ctrl.wrPerTurnAround::mean       17.660961                       # Writes before turning the bus around for reads
system.mem_ctrl.wrPerTurnAround::gmean      17.644225                       # Writes before turning the bus around for reads
system.mem_ctrl.wrPerTurnAround::stdev       0.749252                       # Writes before turning the bus around for reads
system.mem_ctrl.wrPerTurnAround::16              3113     16.81%     16.81% # Writes before turning the bus around for reads
system.mem_ctrl.wrPerTurnAround::17                63      0.34%     17.15% # Writes before turning the bus around for reads
system.mem_ctrl.wrPerTurnAround::18             15334     82.80%     99.95% # Writes before turning the bus around for reads
system.mem_ctrl.wrPerTurnAround::19                10      0.05%    100.00% # Writes before turning the bus around for reads
system.mem_ctrl.wrPerTurnAround::total          18520                       # Writes before turning the bus around for reads
system.mem_ctrl.bytesReadWrQ                   578624                       # Total number of bytes read from write queue
system.mem_ctrl.bytesReadSys                417459008                       # Total read bytes from the system interface side
system.mem_ctrl.bytesWrittenSys              20935168                       # Total written bytes from the system interface side
system.mem_ctrl.avgRdBWSys                     244.26                       # Average system read bandwidth in MiByte/s
system.mem_ctrl.avgWrBWSys                      12.25                       # Average system write bandwidth in MiByte/s
system.mem_ctrl.totGap                   1709063563000                       # Total gap between requests
system.mem_ctrl.avgGap                      249501.64                       # Average gap between requests
system.mem_ctrl.requestorReadBytes::.cpu.inst       622784                       # Per-requestor bytes read from memory
system.mem_ctrl.requestorReadBytes::.cpu.data    416257600                       # Per-requestor bytes read from memory
system.mem_ctrl.requestorWriteBytes::.writebacks     20933184                       # Per-requestor bytes write to memory
system.mem_ctrl.requestorReadRate::.cpu.inst 364400.703055846738                       # Per-requestor bytes read from memory rate (Bytes/sec)
system.mem_ctrl.requestorReadRate::.cpu.data 243558861.647600829601                       # Per-requestor bytes read from memory rate (Bytes/sec)
system.mem_ctrl.requestorWriteRate::.writebacks 12248334.842894811183                       # Per-requestor bytes write to memory rate (Bytes/sec)
system.mem_ctrl.requestorReadAccesses::.cpu.inst         9731                       # Per-requestor read serviced memory accesses
system.mem_ctrl.requestorReadAccesses::.cpu.data      6513066                       # Per-requestor read serviced memory accesses
system.mem_ctrl.requestorWriteAccesses::.writebacks       327112                       # Per-requestor write serviced memory accesses
system.mem_ctrl.requestorReadTotalLat::.cpu.inst    261679750                       # Per-requestor read total memory access latency
system.mem_ctrl.requestorReadTotalLat::.cpu.data 161791437250                       # Per-requestor read total memory access latency
system.mem_ctrl.requestorWriteTotalLat::.writebacks 38413178744250                       # Per-requestor write total memory access latency
system.mem_ctrl.requestorReadAvgLat::.cpu.inst     26891.35                       # Per-requestor read average memory access latency
system.mem_ctrl.requestorReadAvgLat::.cpu.data     24841.06                       # Per-requestor read average memory access latency
system.mem_ctrl.requestorWriteAvgLat::.writebacks 117431273.52                       # Per-requestor write average memory access latency
system.mem_ctrl.dram.bytes_read::.cpu.inst       622784                       # Number of bytes read from this memory
system.mem_ctrl.dram.bytes_read::.cpu.data    416836224                       # Number of bytes read from this memory
system.mem_ctrl.dram.bytes_read::total      417459008                       # Number of bytes read from this memory
system.mem_ctrl.dram.bytes_inst_read::.cpu.inst       622784                       # Number of instructions bytes read from this memory
system.mem_ctrl.dram.bytes_inst_read::total       622784                       # Number of instructions bytes read from this memory
system.mem_ctrl.dram.bytes_written::.writebacks     20935168                       # Number of bytes written to this memory
system.mem_ctrl.dram.bytes_written::total     20935168                       # Number of bytes written to this memory
system.mem_ctrl.dram.num_reads::.cpu.inst         9731                       # Number of read requests responded to by this memory
system.mem_ctrl.dram.num_reads::.cpu.data      6513066                       # Number of read requests responded to by this memory
system.mem_ctrl.dram.num_reads::total         6522797                       # Number of read requests responded to by this memory
system.mem_ctrl.dram.num_writes::.writebacks       327112                       # Number of write requests responded to by this memory
system.mem_ctrl.dram.num_writes::total         327112                       # Number of write requests responded to by this memory
system.mem_ctrl.dram.bw_read::.cpu.inst        364401                       # Total read bandwidth from this memory (bytes/s)
system.mem_ctrl.dram.bw_read::.cpu.data     243897424                       # Total read bandwidth from this memory (bytes/s)
system.mem_ctrl.dram.bw_read::total         244261824                       # Total read bandwidth from this memory (bytes/s)
system.mem_ctrl.dram.bw_inst_read::.cpu.inst       364401                       # Instruction read bandwidth from this memory (bytes/s)
system.mem_ctrl.dram.bw_inst_read::total       364401                       # Instruction read bandwidth from this memory (bytes/s)
system.mem_ctrl.dram.bw_write::.writebacks     12249496                       # Write bandwidth from this memory (bytes/s)
system.mem_ctrl.dram.bw_write::total         12249496                       # Write bandwidth from this memory (bytes/s)
system.mem_ctrl.dram.bw_total::.writebacks     12249496                       # Total bandwidth to/from this memory (bytes/s)
system.mem_ctrl.dram.bw_total::.cpu.inst       364401                       # Total bandwidth to/from this memory (bytes/s)
system.mem_ctrl.dram.bw_total::.cpu.data    243897424                       # Total bandwidth to/from this memory (bytes/s)
system.mem_ctrl.dram.bw_total::total        256511320                       # Total bandwidth to/from this memory (bytes/s)
system.mem_ctrl.dram.readBursts               6513756                       # Number of DRAM read bursts
system.mem_ctrl.dram.writeBursts               327081                       # Number of DRAM write bursts
system.mem_ctrl.dram.perBankRdBursts::0        435106                       # Per bank write bursts
system.mem_ctrl.dram.perBankRdBursts::1        391228                       # Per bank write bursts
system.mem_ctrl.dram.perBankRdBursts::2        381345                       # Per bank write bursts
system.mem_ctrl.dram.perBankRdBursts::3        381407                       # Per bank write bursts
system.mem_ctrl.dram.perBankRdBursts::4        382360                       # Per bank write bursts
system.mem_ctrl.dram.perBankRdBursts::5        405870                       # Per bank write bursts
system.mem_ctrl.dram.perBankRdBursts::6        440431                       # Per bank write bursts
system.mem_ctrl.dram.perBankRdBursts::7        407498                       # Per bank write bursts
system.mem_ctrl.dram.perBankRdBursts::8        437631                       # Per bank write bursts
system.mem_ctrl.dram.perBankRdBursts::9        383945                       # Per bank write bursts
system.mem_ctrl.dram.perBankRdBursts::10       381972                       # Per bank write bursts
system.mem_ctrl.dram.perBankRdBursts::11       381208                       # Per bank write bursts
system.mem_ctrl.dram.perBankRdBursts::12       398170                       # Per bank write bursts
system.mem_ctrl.dram.perBankRdBursts::13       434320                       # Per bank write bursts
system.mem_ctrl.dram.perBankRdBursts::14       434866                       # Per bank write bursts
system.mem_ctrl.dram.perBankRdBursts::15       436399                       # Per bank write bursts
system.mem_ctrl.dram.perBankWrBursts::0          7514                       # Per bank write bursts
system.mem_ctrl.dram.perBankWrBursts::1          6915                       # Per bank write bursts
system.mem_ctrl.dram.perBankWrBursts::2          6896                       # Per bank write bursts
system.mem_ctrl.dram.perBankWrBursts::3          6976                       # Per bank write bursts
system.mem_ctrl.dram.perBankWrBursts::4          8031                       # Per bank write bursts
system.mem_ctrl.dram.perBankWrBursts::5         31128                       # Per bank write bursts
system.mem_ctrl.dram.perBankWrBursts::6         52847                       # Per bank write bursts
system.mem_ctrl.dram.perBankWrBursts::7          8263                       # Per bank write bursts
system.mem_ctrl.dram.perBankWrBursts::8         43831                       # Per bank write bursts
system.mem_ctrl.dram.perBankWrBursts::9         58836                       # Per bank write bursts
system.mem_ctrl.dram.perBankWrBursts::10        60038                       # Per bank write bursts
system.mem_ctrl.dram.perBankWrBursts::11         7394                       # Per bank write bursts
system.mem_ctrl.dram.perBankWrBursts::12         6516                       # Per bank write bursts
system.mem_ctrl.dram.perBankWrBursts::13         6935                       # Per bank write bursts
system.mem_ctrl.dram.perBankWrBursts::14         6798                       # Per bank write bursts
system.mem_ctrl.dram.perBankWrBursts::15         8163                       # Per bank write bursts
system.mem_ctrl.dram.totQLat              39920192000                       # Total ticks spent queuing
system.mem_ctrl.dram.totBusLat            32568780000                       # Total ticks spent in databus transfers
system.mem_ctrl.dram.totMemAccLat        162053117000                       # Total ticks spent from burst creation until serviced by the DRAM
system.mem_ctrl.dram.avgQLat                  6128.60                       # Average queueing delay per DRAM burst
system.mem_ctrl.dram.avgBusLat                5000.00                       # Average bus latency per DRAM burst
system.mem_ctrl.dram.avgMemAccLat            24878.60                       # Average memory access latency per DRAM burst
system.mem_ctrl.dram.readRowHits              5566246                       # Number of row buffer hits during reads
system.mem_ctrl.dram.writeRowHits              255009                       # Number of row buffer hits during writes
system.mem_ctrl.dram.readRowHitRate             85.45                       # Row buffer hit rate for reads
system.mem_ctrl.dram.writeRowHitRate            77.97                       # Row buffer hit rate for writes
system.mem_ctrl.dram.bytesPerActivate::samples      1019576                       # Bytes accessed per row activation
system.mem_ctrl.dram.bytesPerActivate::mean   429.406420                       # Bytes accessed per row activation
system.mem_ctrl.dram.bytesPerActivate::gmean   264.424255                       # Bytes accessed per row activation
system.mem_ctrl.dram.bytesPerActivate::stdev   360.137651                       # Bytes accessed per row activation
system.mem_ctrl.dram.bytesPerActivate::0-127       275269     27.00%     27.00% # Bytes accessed per row activation
system.mem_ctrl.dram.bytesPerActivate::128-255       160234     15.72%     42.71% # Bytes accessed per row activation
system.mem_ctrl.dram.bytesPerActivate::256-383        98262      9.64%     52.35% # Bytes accessed per row activation
system.mem_ctrl.dram.bytesPerActivate::384-511        95158      9.33%     61.68% # Bytes accessed per row activation
system.mem_ctrl.dram.bytesPerActivate::512-639        18303      1.80%     63.48% # Bytes accessed per row activation
system.mem_ctrl.dram.bytesPerActivate::640-767       171563     16.83%     80.31% # Bytes accessed per row activation
system.mem_ctrl.dram.bytesPerActivate::768-895         9042      0.89%     81.19% # Bytes accessed per row activation
system.mem_ctrl.dram.bytesPerActivate::896-1023         8576      0.84%     82.03% # Bytes accessed per row activation
system.mem_ctrl.dram.bytesPerActivate::1024-1151       183169     17.97%    100.00% # Bytes accessed per row activation
system.mem_ctrl.dram.bytesPerActivate::total      1019576                       # Bytes accessed per row activation
system.mem_ctrl.dram.bytesRead              416880384                       # Total number of bytes read from DRAM
system.mem_ctrl.dram.bytesWritten            20933184                       # Total number of bytes written to DRAM
system.mem_ctrl.dram.avgRdBW               243.923262                       # Average DRAM read bandwidth in MiBytes/s
system.mem_ctrl.dram.avgWrBW                12.248335                       # Average DRAM write bandwidth in MiBytes/s
system.mem_ctrl.dram.peakBW                  12800.00                       # Theoretical peak bandwidth in MiByte/s
system.mem_ctrl.dram.busUtil                     2.00                       # Data bus utilization in percentage
system.mem_ctrl.dram.busUtilRead                 1.91                       # Data bus utilization in percentage for reads
system.mem_ctrl.dram.busUtilWrite                0.10                       # Data bus utilization in percentage for writes
system.mem_ctrl.dram.pageHitRate                85.10                       # Row buffer hit rate, read and write combined
system.mem_ctrl.dram.power_state.pwrStateResidencyTicks::UNDEFINED 1709063662000                       # Cumulative time (in ticks) in various power states
system.mem_ctrl.dram.rank0.actEnergy       2846525220                       # Energy for activate commands per rank (pJ)
system.mem_ctrl.dram.rank0.preEnergy       1512952650                       # Energy for precharge commands per rank (pJ)
system.mem_ctrl.dram.rank0.readEnergy     23028249300                       # Energy for read commands per rank (pJ)
system.mem_ctrl.dram.rank0.writeEnergy      671135400                       # Energy for write commands per rank (pJ)
system.mem_ctrl.dram.rank0.refreshEnergy 134911636080.000015                       # Energy for refresh commands per rank (pJ)
system.mem_ctrl.dram.rank0.actBackEnergy 559073239080                       # Energy for active background per rank (pJ)
system.mem_ctrl.dram.rank0.preBackEnergy 185481929280                       # Energy for precharge background per rank (pJ)
system.mem_ctrl.dram.rank0.actPowerDownEnergy            0                       # Energy for active power-down per rank (pJ)
system.mem_ctrl.dram.rank0.prePowerDownEnergy            0                       # Energy for precharge power-down per rank (pJ)
system.mem_ctrl.dram.rank0.selfRefreshEnergy            0                       # Energy for self refresh per rank (pJ)
system.mem_ctrl.dram.rank0.totalEnergy   907525667010                       # Total energy per rank (pJ)
system.mem_ctrl.dram.rank0.averagePower    531.007526                       # Core power per rank (mW)
system.mem_ctrl.dram.rank0.totalIdleTime            0                       # Total Idle time Per DRAM Rank
system.mem_ctrl.dram.rank0.pwrStateTime::IDLE 476963431250                       # Time in different power states
system.mem_ctrl.dram.rank0.pwrStateTime::REF  57069220000                       # Time in different power states
system.mem_ctrl.dram.rank0.pwrStateTime::SREF            0                       # Time in different power states
system.mem_ctrl.dram.rank0.pwrStateTime::PRE_PDN            0                       # Time in different power states
system.mem_ctrl.dram.rank0.pwrStateTime::ACT 1175031010750                       # Time in different power states
system.mem_ctrl.dram.rank0.pwrStateTime::ACT_PDN            0                       # Time in different power states
system.mem_ctrl.dram.rank1.actEnergy       4433290260                       # Energy for activate commands per rank (pJ)
system.mem_ctrl.dram.rank1.preEnergy       2356338270                       # Energy for precharge commands per rank (pJ)
system.mem_ctrl.dram.rank1.readEnergy     23479968540                       # Energy for read commands per rank (pJ)
system.mem_ctrl.dram.rank1.writeEnergy     1036227420                       # Energy for write commands per rank (pJ)
system.mem_ctrl.dram.rank1.refreshEnergy 134911636080.000015                       # Energy for refresh commands per rank (pJ)
system.mem_ctrl.dram.rank1.actBackEnergy 600528349560                       # Energy for active background per rank (pJ)
system.mem_ctrl.dram.rank1.preBackEnergy 150572362560                       # Energy for precharge background per rank (pJ)
system.mem_ctrl.dram.rank1.actPowerDownEnergy            0                       # Energy for active power-down per rank (pJ)
system.mem_ctrl.dram.rank1.prePowerDownEnergy            0                       # Energy for precharge power-down per rank (pJ)
system.mem_ctrl.dram.rank1.selfRefreshEnergy            0                       # Energy for self refresh per rank (pJ)
system.mem_ctrl.dram.rank1.totalEnergy   917318172690                       # Total energy per rank (pJ)
system.mem_ctrl.dram.rank1.averagePower    536.737275                       # Core power per rank (mW)
system.mem_ctrl.dram.rank1.totalIdleTime            0                       # Total Idle time Per DRAM Rank
system.mem_ctrl.dram.rank1.pwrStateTime::IDLE 383508595250                       # Time in different power states
system.mem_ctrl.dram.rank1.pwrStateTime::REF  57069220000                       # Time in different power states
system.mem_ctrl.dram.rank1.pwrStateTime::SREF            0                       # Time in different power states
system.mem_ctrl.dram.rank1.pwrStateTime::PRE_PDN            0                       # Time in different power states
system.mem_ctrl.dram.rank1.pwrStateTime::ACT 1268485846750                       # Time in different power states
system.mem_ctrl.dram.rank1.pwrStateTime::ACT_PDN            0                       # Time in different power states
system.mem_ctrl.power_state.pwrStateResidencyTicks::UNDEFINED 1709063662000                       # Cumulative time (in ticks) in various power states
system.membus.trans_dist::ReadResp            6431288                       # Transaction distribution
system.membus.trans_dist::WritebackDirty       327112                       # Transaction distribution
system.membus.trans_dist::CleanEvict          6191500                       # Transaction distribution
system.membus.trans_dist::ReadExReq             91509                       # Transaction distribution
system.membus.trans_dist::ReadExResp            91509                       # Transaction distribution
system.membus.trans_dist::ReadSharedReq       6431288                       # Transaction distribution
system.membus.pkt_count_system.l2cache.mem_side_port::system.mem_ctrl.port     19564206                       # Packet count per connected requestor and responder (bytes)
system.membus.pkt_count_system.l2cache.mem_side_port::total     19564206                       # Packet count per connected requestor and responder (bytes)
system.membus.pkt_count::total               19564206                       # Packet count per connected requestor and responder (bytes)
system.membus.pkt_size_system.l2cache.mem_side_port::system.mem_ctrl.port    438394176                       # Cumulative packet size per connected requestor and responder (bytes)
system.membus.pkt_size_system.l2cache.mem_side_port::total    438394176                       # Cumulative packet size per connected requestor and responder (bytes)
system.membus.pkt_size::total               438394176                       # Cumulative packet size per connected requestor and responder (bytes)
system.membus.snoops                                0                       # Total snoops (count)
system.membus.snoopTraffic                          0                       # Total snoop traffic (bytes)
system.membus.snoop_fanout::samples           6522797                       # Request fanout histogram
system.membus.snoop_fanout::mean                    0                       # Request fanout histogram
system.membus.snoop_fanout::stdev                   0                       # Request fanout histogram
system.membus.snoop_fanout::underflows              0      0.00%      0.00% # Request fanout histogram
system.membus.snoop_fanout::0                 6522797    100.00%    100.00% # Request fanout histogram
system.membus.snoop_fanout::1                       0      0.00%    100.00% # Request fanout histogram
system.membus.snoop_fanout::overflows               0      0.00%    100.00% # Request fanout histogram
system.membus.snoop_fanout::min_value               0                       # Request fanout histogram
system.membus.snoop_fanout::max_value               0                       # Request fanout histogram
system.membus.snoop_fanout::total             6522797                       # Request fanout histogram
system.membus.power_state.pwrStateResidencyTicks::UNDEFINED 1709063662000                       # Cumulative time (in ticks) in various power states
system.membus.reqLayer2.occupancy         14349857000                       # Layer occupancy (ticks)
system.membus.reqLayer2.utilization               0.8                       # Layer utilization (%)
system.membus.respLayer0.occupancy        34515998250                       # Layer occupancy (ticks)
system.membus.respLayer0.utilization              2.0                       # Layer utilization (%)

---------- End Simulation Statistics   ----------
