
---------- Begin Simulation Statistics ----------
final_tick                               1238448962000                       # Number of ticks from beginning of simulation (restored from checkpoints and never reset)
host_inst_rate                                 456058                       # Simulator instruction rate (inst/s)
host_mem_usage                                 668996                       # Number of bytes of host memory used
host_op_rate                                   836923                       # Simulator op (including micro ops) rate (op/s)
host_seconds                                   651.63                       # Real time elapsed on the host
host_tick_rate                             1900537595                       # Simulator tick rate (ticks/s)
sim_freq                                 1000000000000                       # Frequency of simulated ticks
sim_insts                                   297181047                       # Number of instructions simulated
sim_ops                                     545364661                       # Number of ops (including micro ops) simulated
sim_seconds                                  1.238449                       # Number of seconds simulated
sim_ticks                                1238448962000                       # Number of ticks simulated
system.cpu.Branches                          49473280                       # Number of branches fetched
system.cpu.committedInsts                   297181047                       # Number of instructions committed
system.cpu.committedOps                     545364661                       # Number of ops (including micro ops) committed
system.cpu.idle_fraction                     0.000000                       # Percentage of idle cycles
system.cpu.not_idle_fraction                 1.000000                       # Percentage of non-idle cycles
system.cpu.numCycles                       1238448962                       # number of cpu cycles simulated
system.cpu.numWorkItemsCompleted                    0                       # number of work items this cpu completed
system.cpu.numWorkItemsStarted                      0                       # number of work items this cpu started
system.cpu.num_busy_cycles               1238448961.999000                       # Number of busy cycles
system.cpu.num_cc_register_reads            252086620                       # number of times the CC registers were read
system.cpu.num_cc_register_writes           180867069                       # number of times the CC registers were written
system.cpu.num_conditional_control_insts     49270102                       # number of instructions that are conditional controls
system.cpu.num_fp_alu_accesses              184508638                       # Number of float alu accesses
system.cpu.num_fp_insts                     184508638                       # number of float instructions
system.cpu.num_fp_register_reads            225216963                       # number of times the floating registers were read
system.cpu.num_fp_register_writes           180499653                       # number of times the floating registers were written
system.cpu.num_func_calls                       81596                       # number of times a function call or return occured
system.cpu.num_idle_cycles                   0.001000                       # Number of idle cycles
system.cpu.num_int_alu_accesses             435906736                       # Number of integer alu accesses
system.cpu.num_int_insts                    435906736                       # number of integer instructions
system.cpu.num_int_register_reads           778693248                       # number of times the integer registers were read
system.cpu.num_int_register_writes          309382782                       # number of times the integer registers were written
system.cpu.num_load_insts                   111390493                       # Number of load instructions
system.cpu.num_mem_refs                     116747170                       # number of memory refs
system.cpu.num_store_insts                    5356677                       # Number of store instructions
system.cpu.num_vec_alu_accesses                     0                       # Number of vector alu accesses
system.cpu.num_vec_insts                            0                       # number of vector instructions
system.cpu.num_vec_register_reads                   0                       # number of times the vector registers were read
system.cpu.num_vec_register_writes                  0                       # number of times the vector registers were written
system.cpu.op_class::No_OpClass                710629      0.13%      0.13% # Class of executed instruction
system.cpu.op_class::IntAlu                 322694338     59.17%     59.30% # Class of executed instruction
system.cpu.op_class::IntMult                    30102      0.01%     59.31% # Class of executed instruction
system.cpu.op_class::IntDiv                       630      0.00%     59.31% # Class of executed instruction
system.cpu.op_class::FloatAdd                33737834      6.19%     65.49% # Class of executed instruction
system.cpu.op_class::FloatCmp                       0      0.00%     65.49% # Class of executed instruction
system.cpu.op_class::FloatCvt                       0      0.00%     65.49% # Class of executed instruction
system.cpu.op_class::FloatMult                      0      0.00%     65.49% # Class of executed instruction
system.cpu.op_class::FloatMultAcc                   0      0.00%     65.49% # Class of executed instruction
system.cpu.op_class::FloatDiv                       0      0.00%     65.49% # Class of executed instruction
system.cpu.op_class::FloatMisc                      0      0.00%     65.49% # Class of executed instruction
system.cpu.op_class::FloatSqrt                      0      0.00%     65.49% # Class of executed instruction
system.cpu.op_class::SimdAdd                    76762      0.01%     65.51% # Class of executed instruction
system.cpu.op_class::SimdAddAcc                     0      0.00%     65.51% # Class of executed instruction
system.cpu.op_class::SimdAlu                    60252      0.01%     65.52% # Class of executed instruction
system.cpu.op_class::SimdCmp                       24      0.00%     65.52% # Class of executed instruction
system.cpu.op_class::SimdCvt                     1170      0.00%     65.52% # Class of executed instruction
system.cpu.op_class::SimdMisc                  125019      0.02%     65.54% # Class of executed instruction
system.cpu.op_class::SimdMult                       0      0.00%     65.54% # Class of executed instruction
system.cpu.op_class::SimdMultAcc                    0      0.00%     65.54% # Class of executed instruction
system.cpu.op_class::SimdShift                      0      0.00%     65.54% # Class of executed instruction
system.cpu.op_class::SimdShiftAcc                   0      0.00%     65.54% # Class of executed instruction
system.cpu.op_class::SimdDiv                        0      0.00%     65.54% # Class of executed instruction
system.cpu.op_class::SimdSqrt                       0      0.00%     65.54% # Class of executed instruction
system.cpu.op_class::SimdFloatAdd            35512541      6.51%     72.05% # Class of executed instruction
system.cpu.op_class::SimdFloatAlu                   0      0.00%     72.05% # Class of executed instruction
system.cpu.op_class::SimdFloatCmp                   0      0.00%     72.05% # Class of executed instruction
system.cpu.op_class::SimdFloatCvt              101637      0.02%     72.07% # Class of executed instruction
system.cpu.op_class::SimdFloatDiv                 835      0.00%     72.07% # Class of executed instruction
system.cpu.op_class::SimdFloatMisc                  0      0.00%     72.07% # Class of executed instruction
system.cpu.op_class::SimdFloatMult           35565797      6.52%     78.59% # Class of executed instruction
system.cpu.op_class::SimdFloatMultAcc               0      0.00%     78.59% # Class of executed instruction
system.cpu.op_class::SimdFloatSqrt                 32      0.00%     78.59% # Class of executed instruction
system.cpu.op_class::SimdReduceAdd                  0      0.00%     78.59% # Class of executed instruction
system.cpu.op_class::SimdReduceAlu                  0      0.00%     78.59% # Class of executed instruction
system.cpu.op_class::SimdReduceCmp                  0      0.00%     78.59% # Class of executed instruction
system.cpu.op_class::SimdFloatReduceAdd             0      0.00%     78.59% # Class of executed instruction
system.cpu.op_class::SimdFloatReduceCmp             0      0.00%     78.59% # Class of executed instruction
system.cpu.op_class::SimdAes                        0      0.00%     78.59% # Class of executed instruction
system.cpu.op_class::SimdAesMix                     0      0.00%     78.59% # Class of executed instruction
system.cpu.op_class::SimdSha1Hash                   0      0.00%     78.59% # Class of executed instruction
system.cpu.op_class::SimdSha1Hash2                  0      0.00%     78.59% # Class of executed instruction
system.cpu.op_class::SimdSha256Hash                 0      0.00%     78.59% # Class of executed instruction
system.cpu.op_class::SimdSha256Hash2                0      0.00%     78.59% # Class of executed instruction
system.cpu.op_class::SimdShaSigma2                  0      0.00%     78.59% # Class of executed instruction
system.cpu.op_class::SimdShaSigma3                  0      0.00%     78.59% # Class of executed instruction
system.cpu.op_class::SimdPredAlu                    0      0.00%     78.59% # Class of executed instruction
system.cpu.op_class::MemRead                 39670306      7.27%     85.87% # Class of executed instruction
system.cpu.op_class::MemWrite                 1421542      0.26%     86.13% # Class of executed instruction
system.cpu.op_class::FloatMemRead            71720187     13.15%     99.28% # Class of executed instruction
system.cpu.op_class::FloatMemWrite            3935135      0.72%    100.00% # Class of executed instruction
system.cpu.op_class::IprAccess                      0      0.00%    100.00% # Class of executed instruction
system.cpu.op_class::InstPrefetch                   0      0.00%    100.00% # Class of executed instruction
system.cpu.op_class::total                  545364772                       # Class of executed instruction
system.cpu.workload.numSyscalls                    87                       # Number of system calls
system.l2bus.snoop_filter.hit_multi_requests            0                       # Number of requests hitting in the snoop filter with multiple (>1) holders of the requested data.
system.l2bus.snoop_filter.hit_multi_snoops            0                       # Number of snoops hitting in the snoop filter with multiple (>1) holders of the requested data.
system.l2bus.snoop_filter.hit_single_requests      6626203                       # Number of requests hitting in the snoop filter with a single holder of the requested data.
system.l2bus.snoop_filter.hit_single_snoops        17784                       # Number of snoops hitting in the snoop filter with a single holder of the requested data.
system.l2bus.snoop_filter.tot_requests       13253686                       # Total number of requests made to the snoop filter.
system.l2bus.snoop_filter.tot_snoops            17784                       # Total number of snoops made to the snoop filter.
system.membus.snoop_filter.hit_multi_requests            0                       # Number of requests hitting in the snoop filter with multiple (>1) holders of the requested data.
system.membus.snoop_filter.hit_multi_snoops            0                       # Number of snoops hitting in the snoop filter with multiple (>1) holders of the requested data.
system.membus.snoop_filter.hit_single_requests       239336                       # Number of requests hitting in the snoop filter with a single holder of the requested data.
system.membus.snoop_filter.hit_single_snoops            0                       # Number of snoops hitting in the snoop filter with a single holder of the requested data.
system.membus.snoop_filter.tot_requests        495097                       # Total number of requests made to the snoop filter.
system.membus.snoop_filter.tot_snoops               0                       # Total number of snoops made to the snoop filter.
system.clk_domain.clock                          1000                       # Clock period in ticks
system.clk_domain.voltage_domain.voltage            1                       # Voltage in Volts
system.cpu.dcache.demand_hits::.cpu.data    110150281                       # number of demand (read+write) hits
system.cpu.dcache.demand_hits::total        110150281                       # number of demand (read+write) hits
system.cpu.dcache.overall_hits::.cpu.data    110150281                       # number of overall hits
system.cpu.dcache.overall_hits::total       110150281                       # number of overall hits
system.cpu.dcache.demand_misses::.cpu.data      6608747                       # number of demand (read+write) misses
system.cpu.dcache.demand_misses::total        6608747                       # number of demand (read+write) misses
system.cpu.dcache.overall_misses::.cpu.data      6608747                       # number of overall misses
system.cpu.dcache.overall_misses::total       6608747                       # number of overall misses
system.cpu.dcache.demand_miss_latency::.cpu.data 190652010000                       # number of demand (read+write) miss cycles
system.cpu.dcache.demand_miss_latency::total 190652010000                       # number of demand (read+write) miss cycles
system.cpu.dcache.overall_miss_latency::.cpu.data 190652010000                       # number of overall miss cycles
system.cpu.dcache.overall_miss_latency::total 190652010000                       # number of overall miss cycles
system.cpu.dcache.demand_accesses::.cpu.data    116759028                       # number of demand (read+write) accesses
system.cpu.dcache.demand_accesses::total    116759028                       # number of demand (read+write) accesses
system.cpu.dcache.overall_accesses::.cpu.data    116759028                       # number of overall (read+write) accesses
system.cpu.dcache.overall_accesses::total    116759028                       # number of overall (read+write) accesses
system.cpu.dcache.demand_miss_rate::.cpu.data     0.056602                       # miss rate for demand accesses
system.cpu.dcache.demand_miss_rate::total     0.056602                       # miss rate for demand accesses
system.cpu.dcache.overall_miss_rate::.cpu.data     0.056602                       # miss rate for overall accesses
system.cpu.dcache.overall_miss_rate::total     0.056602                       # miss rate for overall accesses
system.cpu.dcache.demand_avg_miss_latency::.cpu.data 28848.435263                       # average overall miss latency
system.cpu.dcache.demand_avg_miss_latency::total 28848.435263                       # average overall miss latency
system.cpu.dcache.overall_avg_miss_latency::.cpu.data 28848.435263                       # average overall miss latency
system.cpu.dcache.overall_avg_miss_latency::total 28848.435263                       # average overall miss latency
system.cpu.dcache.blocked_cycles::no_mshrs            0                       # number of cycles access was blocked
system.cpu.dcache.blocked_cycles::no_targets            0                       # number of cycles access was blocked
system.cpu.dcache.blocked::no_mshrs                 0                       # number of cycles access was blocked
system.cpu.dcache.blocked::no_targets               0                       # number of cycles access was blocked
system.cpu.dcache.avg_blocked_cycles::no_mshrs          nan                       # average number of cycles each access was blocked
system.cpu.dcache.avg_blocked_cycles::no_targets          nan                       # average number of cycles each access was blocked
system.cpu.dcache.writebacks::.writebacks      2932866                       # number of writebacks
system.cpu.dcache.writebacks::total           2932866                       # number of writebacks
system.cpu.dcache.demand_mshr_misses::.cpu.data      6608747                       # number of demand (read+write) MSHR misses
system.cpu.dcache.demand_mshr_misses::total      6608747                       # number of demand (read+write) MSHR misses
system.cpu.dcache.overall_mshr_misses::.cpu.data      6608747                       # number of overall MSHR misses
system.cpu.dcache.overall_mshr_misses::total      6608747                       # number of overall MSHR misses
system.cpu.dcache.demand_mshr_miss_latency::.cpu.data 177434516000                       # number of demand (read+write) MSHR miss cycles
system.cpu.dcache.demand_mshr_miss_latency::total 177434516000                       # number of demand (read+write) MSHR miss cycles
system.cpu.dcache.overall_mshr_miss_latency::.cpu.data 177434516000                       # number of overall MSHR miss cycles
system.cpu.dcache.overall_mshr_miss_latency::total 177434516000                       # number of overall MSHR miss cycles
system.cpu.dcache.demand_mshr_miss_rate::.cpu.data     0.056602                       # mshr miss rate for demand accesses
system.cpu.dcache.demand_mshr_miss_rate::total     0.056602                       # mshr miss rate for demand accesses
system.cpu.dcache.overall_mshr_miss_rate::.cpu.data     0.056602                       # mshr miss rate for overall accesses
system.cpu.dcache.overall_mshr_miss_rate::total     0.056602                       # mshr miss rate for overall accesses
system.cpu.dcache.demand_avg_mshr_miss_latency::.cpu.data 26848.435263                       # average overall mshr miss latency
system.cpu.dcache.demand_avg_mshr_miss_latency::total 26848.435263                       # average overall mshr miss latency
system.cpu.dcache.overall_avg_mshr_miss_latency::.cpu.data 26848.435263                       # average overall mshr miss latency
system.cpu.dcache.overall_avg_mshr_miss_latency::total 26848.435263                       # average overall mshr miss latency
system.cpu.dcache.replacements                6607723                       # number of replacements
system.cpu.dcache.ReadReq_hits::.cpu.data    104904700                       # number of ReadReq hits
system.cpu.dcache.ReadReq_hits::total       104904700                       # number of ReadReq hits
system.cpu.dcache.ReadReq_misses::.cpu.data      6490776                       # number of ReadReq misses
system.cpu.dcache.ReadReq_misses::total       6490776                       # number of ReadReq misses
system.cpu.dcache.ReadReq_miss_latency::.cpu.data 185343871000                       # number of ReadReq miss cycles
system.cpu.dcache.ReadReq_miss_latency::total 185343871000                       # number of ReadReq miss cycles
system.cpu.dcache.ReadReq_accesses::.cpu.data    111395476                       # number of ReadReq accesses(hits+misses)
system.cpu.dcache.ReadReq_accesses::total    111395476                       # number of ReadReq accesses(hits+misses)
system.cpu.dcache.ReadReq_miss_rate::.cpu.data     0.058268                       # miss rate for ReadReq accesses
system.cpu.dcache.ReadReq_miss_rate::total     0.058268                       # miss rate for ReadReq accesses
system.cpu.dcache.ReadReq_avg_miss_latency::.cpu.data 28554.963382                       # average ReadReq miss latency
system.cpu.dcache.ReadReq_avg_miss_latency::total 28554.963382                       # average ReadReq miss latency
system.cpu.dcache.ReadReq_mshr_misses::.cpu.data      6490776                       # number of ReadReq MSHR misses
system.cpu.dcache.ReadReq_mshr_misses::total      6490776                       # number of ReadReq MSHR misses
system.cpu.dcache.ReadReq_mshr_miss_latency::.cpu.data 172362319000                       # number of ReadReq MSHR miss cycles
system.cpu.dcache.ReadReq_mshr_miss_latency::total 172362319000                       # number of ReadReq MSHR miss cycles
system.cpu.dcache.ReadReq_mshr_miss_rate::.cpu.data     0.058268                       # mshr miss rate for ReadReq accesses
system.cpu.dcache.ReadReq_mshr_miss_rate::total     0.058268                       # mshr miss rate for ReadReq accesses
system.cpu.dcache.ReadReq_avg_mshr_miss_latency::.cpu.data 26554.963382                       # average ReadReq mshr miss latency
system.cpu.dcache.ReadReq_avg_mshr_miss_latency::total 26554.963382                       # average ReadReq mshr miss latency
system.cpu.dcache.WriteReq_hits::.cpu.data      5245581                       # number of WriteReq hits
system.cpu.dcache.WriteReq_hits::total        5245581                       # number of WriteReq hits
system.cpu.dcache.WriteReq_misses::.cpu.data       117971                       # number of WriteReq misses
system.cpu.dcache.WriteReq_misses::total       117971                       # number of WriteReq misses
system.cpu.dcache.WriteReq_miss_latency::.cpu.data   5308139000                       # number of WriteReq miss cycles
system.cpu.dcache.WriteReq_miss_latency::total   5308139000                       # number of WriteReq miss cycles
system.cpu.dcache.WriteReq_accesses::.cpu.data      5363552                       # number of WriteReq accesses(hits+misses)
system.cpu.dcache.WriteReq_accesses::total      5363552                       # number of WriteReq accesses(hits+misses)
system.cpu.dcache.WriteReq_miss_rate::.cpu.data     0.021995                       # miss rate for WriteReq accesses
system.cpu.dcache.WriteReq_miss_rate::total     0.021995                       # miss rate for WriteReq accesses
system.cpu.dcache.WriteReq_avg_miss_latency::.cpu.data 44995.286977                       # average WriteReq miss latency
system.cpu.dcache.WriteReq_avg_miss_latency::total 44995.286977                       # average WriteReq miss latency
system.cpu.dcache.WriteReq_mshr_misses::.cpu.data       117971                       # number of WriteReq MSHR misses
system.cpu.dcache.WriteReq_mshr_misses::total       117971                       # number of WriteReq MSHR misses
system.cpu.dcache.WriteReq_mshr_miss_latency::.cpu.data   5072197000                       # number of WriteReq MSHR miss cycles
system.cpu.dcache.WriteReq_mshr_miss_latency::total   5072197000                       # number of WriteReq MSHR miss cycles
system.cpu.dcache.WriteReq_mshr_miss_rate::.cpu.data     0.021995                       # mshr miss rate for WriteReq accesses
system.cpu.dcache.WriteReq_mshr_miss_rate::total     0.021995                       # mshr miss rate for WriteReq accesses
system.cpu.dcache.WriteReq_avg_mshr_miss_latency::.cpu.data 42995.286977                       # average WriteReq mshr miss latency
system.cpu.dcache.WriteReq_avg_mshr_miss_latency::total 42995.286977                       # average WriteReq mshr miss latency
system.cpu.dcache.power_state.pwrStateResidencyTicks::UNDEFINED 1238448962000                       # Cumulative time (in ticks) in various power states
system.cpu.dcache.tags.tagsinuse          1023.737756                       # Cycle average of tags in use
system.cpu.dcache.tags.total_refs           116759028                       # Total number of references to valid blocks.
system.cpu.dcache.tags.sampled_refs           6608747                       # Sample count of references to valid blocks.
system.cpu.dcache.tags.avg_refs             17.667347                       # Average number of references to valid blocks.
system.cpu.dcache.tags.warmup_cycle            224000                       # Cycle when the warmup percentage was hit.
system.cpu.dcache.tags.occ_blocks::.cpu.data  1023.737756                       # Average occupied blocks per requestor
system.cpu.dcache.tags.occ_percent::.cpu.data     0.999744                       # Average percentage of cache occupancy
system.cpu.dcache.tags.occ_percent::total     0.999744                       # Average percentage of cache occupancy
system.cpu.dcache.tags.occ_task_id_blocks::1024         1024                       # Occupied blocks per task id
system.cpu.dcache.tags.age_task_id_blocks_1024::0           28                       # Occupied blocks per task id
system.cpu.dcache.tags.age_task_id_blocks_1024::1          110                       # Occupied blocks per task id
system.cpu.dcache.tags.age_task_id_blocks_1024::2          806                       # Occupied blocks per task id
system.cpu.dcache.tags.age_task_id_blocks_1024::3           80                       # Occupied blocks per task id
system.cpu.dcache.tags.occ_task_id_percent::1024            1                       # Percentage of cache occupancy per task id
system.cpu.dcache.tags.tag_accesses         240126803                       # Number of tag accesses
system.cpu.dcache.tags.data_accesses        240126803                       # Number of data accesses
system.cpu.dcache.tags.power_state.pwrStateResidencyTicks::UNDEFINED 1238448962000                       # Cumulative time (in ticks) in various power states
system.cpu.dtb.rdAccesses                   111395477                       # TLB accesses on read requests
system.cpu.dtb.wrAccesses                     5363575                       # TLB accesses on write requests
system.cpu.dtb.rdMisses                        115974                       # TLB misses on read requests
system.cpu.dtb.wrMisses                          1462                       # TLB misses on write requests
system.cpu.dtb.walker.power_state.pwrStateResidencyTicks::UNDEFINED 1238448962000                       # Cumulative time (in ticks) in various power states
system.cpu.icache.demand_hits::.cpu.inst    413236150                       # number of demand (read+write) hits
system.cpu.icache.demand_hits::total        413236150                       # number of demand (read+write) hits
system.cpu.icache.overall_hits::.cpu.inst    413236150                       # number of overall hits
system.cpu.icache.overall_hits::total       413236150                       # number of overall hits
system.cpu.icache.demand_misses::.cpu.inst        18736                       # number of demand (read+write) misses
system.cpu.icache.demand_misses::total          18736                       # number of demand (read+write) misses
system.cpu.icache.overall_misses::.cpu.inst        18736                       # number of overall misses
system.cpu.icache.overall_misses::total         18736                       # number of overall misses
system.cpu.icache.demand_miss_latency::.cpu.inst   1052893000                       # number of demand (read+write) miss cycles
system.cpu.icache.demand_miss_latency::total   1052893000                       # number of demand (read+write) miss cycles
system.cpu.icache.overall_miss_latency::.cpu.inst   1052893000                       # number of overall miss cycles
system.cpu.icache.overall_miss_latency::total   1052893000                       # number of overall miss cycles
system.cpu.icache.demand_accesses::.cpu.inst    413254886                       # number of demand (read+write) accesses
system.cpu.icache.demand_accesses::total    413254886                       # number of demand (read+write) accesses
system.cpu.icache.overall_accesses::.cpu.inst    413254886                       # number of overall (read+write) accesses
system.cpu.icache.overall_accesses::total    413254886                       # number of overall (read+write) accesses
system.cpu.icache.demand_miss_rate::.cpu.inst     0.000045                       # miss rate for demand accesses
system.cpu.icache.demand_miss_rate::total     0.000045                       # miss rate for demand accesses
system.cpu.icache.overall_miss_rate::.cpu.inst     0.000045                       # miss rate for overall accesses
system.cpu.icache.overall_miss_rate::total     0.000045                       # miss rate for overall accesses
system.cpu.icache.demand_avg_miss_latency::.cpu.inst 56196.253202                       # average overall miss latency
system.cpu.icache.demand_avg_miss_latency::total 56196.253202                       # average overall miss latency
system.cpu.icache.overall_avg_miss_latency::.cpu.inst 56196.253202                       # average overall miss latency
system.cpu.icache.overall_avg_miss_latency::total 56196.253202                       # average overall miss latency
system.cpu.icache.blocked_cycles::no_mshrs            0                       # number of cycles access was blocked
system.cpu.icache.blocked_cycles::no_targets            0                       # number of cycles access was blocked
system.cpu.icache.blocked::no_mshrs                 0                       # number of cycles access was blocked
system.cpu.icache.blocked::no_targets               0                       # number of cycles access was blocked
system.cpu.icache.avg_blocked_cycles::no_mshrs          nan                       # average number of cycles each access was blocked
system.cpu.icache.avg_blocked_cycles::no_targets          nan                       # average number of cycles each access was blocked
system.cpu.icache.demand_mshr_misses::.cpu.inst        18736                       # number of demand (read+write) MSHR misses
system.cpu.icache.demand_mshr_misses::total        18736                       # number of demand (read+write) MSHR misses
system.cpu.icache.overall_mshr_misses::.cpu.inst        18736                       # number of overall MSHR misses
system.cpu.icache.overall_mshr_misses::total        18736                       # number of overall MSHR misses
system.cpu.icache.demand_mshr_miss_latency::.cpu.inst   1015421000                       # number of demand (read+write) MSHR miss cycles
system.cpu.icache.demand_mshr_miss_latency::total   1015421000                       # number of demand (read+write) MSHR miss cycles
system.cpu.icache.overall_mshr_miss_latency::.cpu.inst   1015421000                       # number of overall MSHR miss cycles
system.cpu.icache.overall_mshr_miss_latency::total   1015421000                       # number of overall MSHR miss cycles
system.cpu.icache.demand_mshr_miss_rate::.cpu.inst     0.000045                       # mshr miss rate for demand accesses
system.cpu.icache.demand_mshr_miss_rate::total     0.000045                       # mshr miss rate for demand accesses
system.cpu.icache.overall_mshr_miss_rate::.cpu.inst     0.000045                       # mshr miss rate for overall accesses
system.cpu.icache.overall_mshr_miss_rate::total     0.000045                       # mshr miss rate for overall accesses
system.cpu.icache.demand_avg_mshr_miss_latency::.cpu.inst 54196.253202                       # average overall mshr miss latency
system.cpu.icache.demand_avg_mshr_miss_latency::total 54196.253202                       # average overall mshr miss latency
system.cpu.icache.overall_avg_mshr_miss_latency::.cpu.inst 54196.253202                       # average overall mshr miss latency
system.cpu.icache.overall_avg_mshr_miss_latency::total 54196.253202                       # average overall mshr miss latency
system.cpu.icache.replacements                  18480                       # number of replacements
system.cpu.icache.ReadReq_hits::.cpu.inst    413236150                       # number of ReadReq hits
system.cpu.icache.ReadReq_hits::total       413236150                       # number of ReadReq hits
system.cpu.icache.ReadReq_misses::.cpu.inst        18736                       # number of ReadReq misses
system.cpu.icache.ReadReq_misses::total         18736                       # number of ReadReq misses
system.cpu.icache.ReadReq_miss_latency::.cpu.inst   1052893000                       # number of ReadReq miss cycles
system.cpu.icache.ReadReq_miss_latency::total   1052893000                       # number of ReadReq miss cycles
system.cpu.icache.ReadReq_accesses::.cpu.inst    413254886                       # number of ReadReq accesses(hits+misses)
system.cpu.icache.ReadReq_accesses::total    413254886                       # number of ReadReq accesses(hits+misses)
system.cpu.icache.ReadReq_miss_rate::.cpu.inst     0.000045                       # miss rate for ReadReq accesses
system.cpu.icache.ReadReq_miss_rate::total     0.000045                       # miss rate for ReadReq accesses
system.cpu.icache.ReadReq_avg_miss_latency::.cpu.inst 56196.253202                       # average ReadReq miss latency
system.cpu.icache.ReadReq_avg_miss_latency::total 56196.253202                       # average ReadReq miss latency
system.cpu.icache.ReadReq_mshr_misses::.cpu.inst        18736                       # number of ReadReq MSHR misses
system.cpu.icache.ReadReq_mshr_misses::total        18736                       # number of ReadReq MSHR misses
system.cpu.icache.ReadReq_mshr_miss_latency::.cpu.inst   1015421000                       # number of ReadReq MSHR miss cycles
system.cpu.icache.ReadReq_mshr_miss_latency::total   1015421000                       # number of ReadReq MSHR miss cycles
system.cpu.icache.ReadReq_mshr_miss_rate::.cpu.inst     0.000045                       # mshr miss rate for ReadReq accesses
system.cpu.icache.ReadReq_mshr_miss_rate::total     0.000045                       # mshr miss rate for ReadReq accesses
system.cpu.icache.ReadReq_avg_mshr_miss_latency::.cpu.inst 54196.253202                       # average ReadReq mshr miss latency
system.cpu.icache.ReadReq_avg_mshr_miss_latency::total 54196.253202                       # average ReadReq mshr miss latency
system.cpu.icache.power_state.pwrStateResidencyTicks::UNDEFINED 1238448962000                       # Cumulative time (in ticks) in various power states
system.cpu.icache.tags.tagsinuse           255.989405                       # Cycle average of tags in use
system.cpu.icache.tags.total_refs           413254886                       # Total number of references to valid blocks.
system.cpu.icache.tags.sampled_refs             18736                       # Sample count of references to valid blocks.
system.cpu.icache.tags.avg_refs          22056.729611                       # Average number of references to valid blocks.
system.cpu.icache.tags.warmup_cycle            107000                       # Cycle when the warmup percentage was hit.
system.cpu.icache.tags.occ_blocks::.cpu.inst   255.989405                       # Average occupied blocks per requestor
system.cpu.icache.tags.occ_percent::.cpu.inst     0.999959                       # Average percentage of cache occupancy
system.cpu.icache.tags.occ_percent::total     0.999959                       # Average percentage of cache occupancy
system.cpu.icache.tags.occ_task_id_blocks::1024          256                       # Occupied blocks per task id
system.cpu.icache.tags.age_task_id_blocks_1024::0           35                       # Occupied blocks per task id
system.cpu.icache.tags.age_task_id_blocks_1024::1          116                       # Occupied blocks per task id
system.cpu.icache.tags.age_task_id_blocks_1024::2           98                       # Occupied blocks per task id
system.cpu.icache.tags.age_task_id_blocks_1024::4            7                       # Occupied blocks per task id
system.cpu.icache.tags.occ_task_id_percent::1024            1                       # Percentage of cache occupancy per task id
system.cpu.icache.tags.tag_accesses         826528508                       # Number of tag accesses
system.cpu.icache.tags.data_accesses        826528508                       # Number of data accesses
system.cpu.icache.tags.power_state.pwrStateResidencyTicks::UNDEFINED 1238448962000                       # Cumulative time (in ticks) in various power states
system.cpu.interrupts.clk_domain.clock          16000                       # Clock period in ticks
system.cpu.itb.rdAccesses                           0                       # TLB accesses on read requests
system.cpu.itb.wrAccesses                   413254886                       # TLB accesses on write requests
system.cpu.itb.rdMisses                             0                       # TLB misses on read requests
system.cpu.itb.wrMisses                           110                       # TLB misses on write requests
system.cpu.itb.walker.power_state.pwrStateResidencyTicks::UNDEFINED 1238448962000                       # Cumulative time (in ticks) in various power states
system.cpu.power_state.pwrStateResidencyTicks::ON 1238448962000                       # Cumulative time (in ticks) in various power states
system.cpu.thread_0.numInsts                        0                       # Number of Instructions committed
system.cpu.thread_0.numOps                          0                       # Number of Ops committed
system.cpu.thread_0.numMemRefs                      0                       # Number of Memory References
system.l2bus.trans_dist::ReadResp             6509512                       # Transaction distribution
system.l2bus.trans_dist::WritebackDirty       2966917                       # Transaction distribution
system.l2bus.trans_dist::CleanEvict           3911928                       # Transaction distribution
system.l2bus.trans_dist::ReadExReq             117971                       # Transaction distribution
system.l2bus.trans_dist::ReadExResp            117971                       # Transaction distribution
system.l2bus.trans_dist::ReadSharedReq        6509512                       # Transaction distribution
system.l2bus.pkt_count_system.cpu.icache.mem_side_port::system.l2cache.cpu_side_port        55952                       # Packet count per connected requestor and responder (bytes)
system.l2bus.pkt_count_system.cpu.dcache.mem_side_port::system.l2cache.cpu_side_port     19825217                       # Packet count per connected requestor and responder (bytes)
system.l2bus.pkt_count::total                19881169                       # Packet count per connected requestor and responder (bytes)
system.l2bus.pkt_size_system.cpu.icache.mem_side_port::system.l2cache.cpu_side_port      1199104                       # Cumulative packet size per connected requestor and responder (bytes)
system.l2bus.pkt_size_system.cpu.dcache.mem_side_port::system.l2cache.cpu_side_port    610663232                       # Cumulative packet size per connected requestor and responder (bytes)
system.l2bus.pkt_size::total                611862336                       # Cumulative packet size per connected requestor and responder (bytes)
system.l2bus.snoops                            252642                       # Total snoops (count)
system.l2bus.snoopTraffic                     2179264                       # Total snoop traffic (bytes)
system.l2bus.snoop_fanout::samples            6880125                       # Request fanout histogram
system.l2bus.snoop_fanout::mean              0.002585                       # Request fanout histogram
system.l2bus.snoop_fanout::stdev             0.050776                       # Request fanout histogram
system.l2bus.snoop_fanout::underflows               0      0.00%      0.00% # Request fanout histogram
system.l2bus.snoop_fanout::0                  6862341     99.74%     99.74% # Request fanout histogram
system.l2bus.snoop_fanout::1                    17784      0.26%    100.00% # Request fanout histogram
system.l2bus.snoop_fanout::2                        0      0.00%    100.00% # Request fanout histogram
system.l2bus.snoop_fanout::overflows                0      0.00%    100.00% # Request fanout histogram
system.l2bus.snoop_fanout::min_value                0                       # Request fanout histogram
system.l2bus.snoop_fanout::max_value                1                       # Request fanout histogram
system.l2bus.snoop_fanout::total              6880125                       # Request fanout histogram
system.l2bus.power_state.pwrStateResidencyTicks::UNDEFINED 1238448962000                       # Cumulative time (in ticks) in various power states
system.l2bus.reqLayer0.occupancy          19119418000                       # Layer occupancy (ticks)
system.l2bus.reqLayer0.utilization                1.5                       # Layer utilization (%)
system.l2bus.respLayer0.occupancy            56208000                       # Layer occupancy (ticks)
system.l2bus.respLayer0.utilization               0.0                       # Layer utilization (%)
system.l2bus.respLayer1.occupancy         19826241000                       # Layer occupancy (ticks)
system.l2bus.respLayer1.utilization               1.6                       # Layer utilization (%)
system.l2cache.demand_hits::.cpu.inst           11561                       # number of demand (read+write) hits
system.l2cache.demand_hits::.cpu.data         6360161                       # number of demand (read+write) hits
system.l2cache.demand_hits::total             6371722                       # number of demand (read+write) hits
system.l2cache.overall_hits::.cpu.inst          11561                       # number of overall hits
system.l2cache.overall_hits::.cpu.data        6360161                       # number of overall hits
system.l2cache.overall_hits::total            6371722                       # number of overall hits
system.l2cache.demand_misses::.cpu.inst          7175                       # number of demand (read+write) misses
system.l2cache.demand_misses::.cpu.data        248586                       # number of demand (read+write) misses
system.l2cache.demand_misses::total            255761                       # number of demand (read+write) misses
system.l2cache.overall_misses::.cpu.inst         7175                       # number of overall misses
system.l2cache.overall_misses::.cpu.data       248586                       # number of overall misses
system.l2cache.overall_misses::total           255761                       # number of overall misses
system.l2cache.demand_miss_latency::.cpu.inst    716362000                       # number of demand (read+write) miss cycles
system.l2cache.demand_miss_latency::.cpu.data  24044316000                       # number of demand (read+write) miss cycles
system.l2cache.demand_miss_latency::total  24760678000                       # number of demand (read+write) miss cycles
system.l2cache.overall_miss_latency::.cpu.inst    716362000                       # number of overall miss cycles
system.l2cache.overall_miss_latency::.cpu.data  24044316000                       # number of overall miss cycles
system.l2cache.overall_miss_latency::total  24760678000                       # number of overall miss cycles
system.l2cache.demand_accesses::.cpu.inst        18736                       # number of demand (read+write) accesses
system.l2cache.demand_accesses::.cpu.data      6608747                       # number of demand (read+write) accesses
system.l2cache.demand_accesses::total         6627483                       # number of demand (read+write) accesses
system.l2cache.overall_accesses::.cpu.inst        18736                       # number of overall (read+write) accesses
system.l2cache.overall_accesses::.cpu.data      6608747                       # number of overall (read+write) accesses
system.l2cache.overall_accesses::total        6627483                       # number of overall (read+write) accesses
system.l2cache.demand_miss_rate::.cpu.inst     0.382953                       # miss rate for demand accesses
system.l2cache.demand_miss_rate::.cpu.data     0.037615                       # miss rate for demand accesses
system.l2cache.demand_miss_rate::total       0.038591                       # miss rate for demand accesses
system.l2cache.overall_miss_rate::.cpu.inst     0.382953                       # miss rate for overall accesses
system.l2cache.overall_miss_rate::.cpu.data     0.037615                       # miss rate for overall accesses
system.l2cache.overall_miss_rate::total      0.038591                       # miss rate for overall accesses
system.l2cache.demand_avg_miss_latency::.cpu.inst 99841.393728                       # average overall miss latency
system.l2cache.demand_avg_miss_latency::.cpu.data 96724.336849                       # average overall miss latency
system.l2cache.demand_avg_miss_latency::total 96811.781311                       # average overall miss latency
system.l2cache.overall_avg_miss_latency::.cpu.inst 99841.393728                       # average overall miss latency
system.l2cache.overall_avg_miss_latency::.cpu.data 96724.336849                       # average overall miss latency
system.l2cache.overall_avg_miss_latency::total 96811.781311                       # average overall miss latency
system.l2cache.blocked_cycles::no_mshrs             0                       # number of cycles access was blocked
system.l2cache.blocked_cycles::no_targets            0                       # number of cycles access was blocked
system.l2cache.blocked::no_mshrs                    0                       # number of cycles access was blocked
system.l2cache.blocked::no_targets                  0                       # number of cycles access was blocked
system.l2cache.avg_blocked_cycles::no_mshrs          nan                       # average number of cycles each access was blocked
system.l2cache.avg_blocked_cycles::no_targets          nan                       # average number of cycles each access was blocked
system.l2cache.writebacks::.writebacks          34051                       # number of writebacks
system.l2cache.writebacks::total                34051                       # number of writebacks
system.l2cache.demand_mshr_misses::.cpu.inst         7175                       # number of demand (read+write) MSHR misses
system.l2cache.demand_mshr_misses::.cpu.data       248586                       # number of demand (read+write) MSHR misses
system.l2cache.demand_mshr_misses::total       255761                       # number of demand (read+write) MSHR misses
system.l2cache.overall_mshr_misses::.cpu.inst         7175                       # number of overall MSHR misses
system.l2cache.overall_mshr_misses::.cpu.data       248586                       # number of overall MSHR misses
system.l2cache.overall_mshr_misses::total       255761                       # number of overall MSHR misses
system.l2cache.demand_mshr_miss_latency::.cpu.inst    572862000                       # number of demand (read+write) MSHR miss cycles
system.l2cache.demand_mshr_miss_latency::.cpu.data  19072596000                       # number of demand (read+write) MSHR miss cycles
system.l2cache.demand_mshr_miss_latency::total  19645458000                       # number of demand (read+write) MSHR miss cycles
system.l2cache.overall_mshr_miss_latency::.cpu.inst    572862000                       # number of overall MSHR miss cycles
system.l2cache.overall_mshr_miss_latency::.cpu.data  19072596000                       # number of overall MSHR miss cycles
system.l2cache.overall_mshr_miss_latency::total  19645458000                       # number of overall MSHR miss cycles
system.l2cache.demand_mshr_miss_rate::.cpu.inst     0.382953                       # mshr miss rate for demand accesses
system.l2cache.demand_mshr_miss_rate::.cpu.data     0.037615                       # mshr miss rate for demand accesses
system.l2cache.demand_mshr_miss_rate::total     0.038591                       # mshr miss rate for demand accesses
system.l2cache.overall_mshr_miss_rate::.cpu.inst     0.382953                       # mshr miss rate for overall accesses
system.l2cache.overall_mshr_miss_rate::.cpu.data     0.037615                       # mshr miss rate for overall accesses
system.l2cache.overall_mshr_miss_rate::total     0.038591                       # mshr miss rate for overall accesses
system.l2cache.demand_avg_mshr_miss_latency::.cpu.inst 79841.393728                       # average overall mshr miss latency
system.l2cache.demand_avg_mshr_miss_latency::.cpu.data 76724.336849                       # average overall mshr miss latency
system.l2cache.demand_avg_mshr_miss_latency::total 76811.781311                       # average overall mshr miss latency
system.l2cache.overall_avg_mshr_miss_latency::.cpu.inst 79841.393728                       # average overall mshr miss latency
system.l2cache.overall_avg_mshr_miss_latency::.cpu.data 76724.336849                       # average overall mshr miss latency
system.l2cache.overall_avg_mshr_miss_latency::total 76811.781311                       # average overall mshr miss latency
system.l2cache.replacements                    250061                       # number of replacements
system.l2cache.WritebackDirty_hits::.writebacks      2932752                       # number of WritebackDirty hits
system.l2cache.WritebackDirty_hits::total      2932752                       # number of WritebackDirty hits
system.l2cache.WritebackDirty_misses::.writebacks          114                       # number of WritebackDirty misses
system.l2cache.WritebackDirty_misses::total          114                       # number of WritebackDirty misses
system.l2cache.WritebackDirty_accesses::.writebacks      2932866                       # number of WritebackDirty accesses(hits+misses)
system.l2cache.WritebackDirty_accesses::total      2932866                       # number of WritebackDirty accesses(hits+misses)
system.l2cache.WritebackDirty_miss_rate::.writebacks     0.000039                       # miss rate for WritebackDirty accesses
system.l2cache.WritebackDirty_miss_rate::total     0.000039                       # miss rate for WritebackDirty accesses
system.l2cache.WritebackDirty_mshr_misses::.writebacks          114                       # number of WritebackDirty MSHR misses
system.l2cache.WritebackDirty_mshr_misses::total          114                       # number of WritebackDirty MSHR misses
system.l2cache.WritebackDirty_mshr_miss_rate::.writebacks     0.000039                       # mshr miss rate for WritebackDirty accesses
system.l2cache.WritebackDirty_mshr_miss_rate::total     0.000039                       # mshr miss rate for WritebackDirty accesses
system.l2cache.CleanEvict_mshr_misses::.writebacks         4364                       # number of CleanEvict MSHR misses
system.l2cache.CleanEvict_mshr_misses::total         4364                       # number of CleanEvict MSHR misses
system.l2cache.CleanEvict_mshr_miss_rate::.writebacks          inf                       # mshr miss rate for CleanEvict accesses
system.l2cache.CleanEvict_mshr_miss_rate::total          inf                       # mshr miss rate for CleanEvict accesses
system.l2cache.ReadExReq_hits::.cpu.data        88851                       # number of ReadExReq hits
system.l2cache.ReadExReq_hits::total            88851                       # number of ReadExReq hits
system.l2cache.ReadExReq_misses::.cpu.data        29120                       # number of ReadExReq misses
system.l2cache.ReadExReq_misses::total          29120                       # number of ReadExReq misses
system.l2cache.ReadExReq_miss_latency::.cpu.data   2852051000                       # number of ReadExReq miss cycles
system.l2cache.ReadExReq_miss_latency::total   2852051000                       # number of ReadExReq miss cycles
system.l2cache.ReadExReq_accesses::.cpu.data       117971                       # number of ReadExReq accesses(hits+misses)
system.l2cache.ReadExReq_accesses::total       117971                       # number of ReadExReq accesses(hits+misses)
system.l2cache.ReadExReq_miss_rate::.cpu.data     0.246840                       # miss rate for ReadExReq accesses
system.l2cache.ReadExReq_miss_rate::total     0.246840                       # miss rate for ReadExReq accesses
system.l2cache.ReadExReq_avg_miss_latency::.cpu.data 97941.311813                       # average ReadExReq miss latency
system.l2cache.ReadExReq_avg_miss_latency::total 97941.311813                       # average ReadExReq miss latency
system.l2cache.ReadExReq_mshr_misses::.cpu.data        29120                       # number of ReadExReq MSHR misses
system.l2cache.ReadExReq_mshr_misses::total        29120                       # number of ReadExReq MSHR misses
system.l2cache.ReadExReq_mshr_miss_latency::.cpu.data   2269651000                       # number of ReadExReq MSHR miss cycles
system.l2cache.ReadExReq_mshr_miss_latency::total   2269651000                       # number of ReadExReq MSHR miss cycles
system.l2cache.ReadExReq_mshr_miss_rate::.cpu.data     0.246840                       # mshr miss rate for ReadExReq accesses
system.l2cache.ReadExReq_mshr_miss_rate::total     0.246840                       # mshr miss rate for ReadExReq accesses
system.l2cache.ReadExReq_avg_mshr_miss_latency::.cpu.data 77941.311813                       # average ReadExReq mshr miss latency
system.l2cache.ReadExReq_avg_mshr_miss_latency::total 77941.311813                       # average ReadExReq mshr miss latency
system.l2cache.ReadSharedReq_hits::.cpu.inst        11561                       # number of ReadSharedReq hits
system.l2cache.ReadSharedReq_hits::.cpu.data      6271310                       # number of ReadSharedReq hits
system.l2cache.ReadSharedReq_hits::total      6282871                       # number of ReadSharedReq hits
system.l2cache.ReadSharedReq_misses::.cpu.inst         7175                       # number of ReadSharedReq misses
system.l2cache.ReadSharedReq_misses::.cpu.data       219466                       # number of ReadSharedReq misses
system.l2cache.ReadSharedReq_misses::total       226641                       # number of ReadSharedReq misses
system.l2cache.ReadSharedReq_miss_latency::.cpu.inst    716362000                       # number of ReadSharedReq miss cycles
system.l2cache.ReadSharedReq_miss_latency::.cpu.data  21192265000                       # number of ReadSharedReq miss cycles
system.l2cache.ReadSharedReq_miss_latency::total  21908627000                       # number of ReadSharedReq miss cycles
system.l2cache.ReadSharedReq_accesses::.cpu.inst        18736                       # number of ReadSharedReq accesses(hits+misses)
system.l2cache.ReadSharedReq_accesses::.cpu.data      6490776                       # number of ReadSharedReq accesses(hits+misses)
system.l2cache.ReadSharedReq_accesses::total      6509512                       # number of ReadSharedReq accesses(hits+misses)
system.l2cache.ReadSharedReq_miss_rate::.cpu.inst     0.382953                       # miss rate for ReadSharedReq accesses
system.l2cache.ReadSharedReq_miss_rate::.cpu.data     0.033812                       # miss rate for ReadSharedReq accesses
system.l2cache.ReadSharedReq_miss_rate::total     0.034817                       # miss rate for ReadSharedReq accesses
system.l2cache.ReadSharedReq_avg_miss_latency::.cpu.inst 99841.393728                       # average ReadSharedReq miss latency
system.l2cache.ReadSharedReq_avg_miss_latency::.cpu.data 96562.861673                       # average ReadSharedReq miss latency
system.l2cache.ReadSharedReq_avg_miss_latency::total 96666.653430                       # average ReadSharedReq miss latency
system.l2cache.ReadSharedReq_mshr_misses::.cpu.inst         7175                       # number of ReadSharedReq MSHR misses
system.l2cache.ReadSharedReq_mshr_misses::.cpu.data       219466                       # number of ReadSharedReq MSHR misses
system.l2cache.ReadSharedReq_mshr_misses::total       226641                       # number of ReadSharedReq MSHR misses
system.l2cache.ReadSharedReq_mshr_miss_latency::.cpu.inst    572862000                       # number of ReadSharedReq MSHR miss cycles
system.l2cache.ReadSharedReq_mshr_miss_latency::.cpu.data  16802945000                       # number of ReadSharedReq MSHR miss cycles
system.l2cache.ReadSharedReq_mshr_miss_latency::total  17375807000                       # number of ReadSharedReq MSHR miss cycles
system.l2cache.ReadSharedReq_mshr_miss_rate::.cpu.inst     0.382953                       # mshr miss rate for ReadSharedReq accesses
system.l2cache.ReadSharedReq_mshr_miss_rate::.cpu.data     0.033812                       # mshr miss rate for ReadSharedReq accesses
system.l2cache.ReadSharedReq_mshr_miss_rate::total     0.034817                       # mshr miss rate for ReadSharedReq accesses
system.l2cache.ReadSharedReq_avg_mshr_miss_latency::.cpu.inst 79841.393728                       # average ReadSharedReq mshr miss latency
system.l2cache.ReadSharedReq_avg_mshr_miss_latency::.cpu.data 76562.861673                       # average ReadSharedReq mshr miss latency
system.l2cache.ReadSharedReq_avg_mshr_miss_latency::total 76666.653430                       # average ReadSharedReq mshr miss latency
system.l2cache.power_state.pwrStateResidencyTicks::UNDEFINED 1238448962000                       # Cumulative time (in ticks) in various power states
system.l2cache.replacement_policy.totalBypasses         2695                       # Total number of cache bypasses
system.l2cache.replacement_policy.effectiveBypasses          650                       # Bypasses that correctly skipped non-reused blocks
system.l2cache.replacement_policy.ineffectiveBypasses         1899                       # Bypasses that incorrectly skipped requested blocks
system.l2cache.replacement_policy.virtualEffectiveBypasses         3198                       # Virtual bypasses correctly predicting non-reused blocks
system.l2cache.replacement_policy.virtualIneffectiveBypasses         9795                       # Virtual bypasses incorrectly predicting requested blocks
system.l2cache.tags.tagsinuse            16332.361738                       # Cycle average of tags in use
system.l2cache.tags.total_refs               13246627                       # Total number of references to valid blocks.
system.l2cache.tags.sampled_refs               266445                       # Sample count of references to valid blocks.
system.l2cache.tags.avg_refs                49.716178                       # Average number of references to valid blocks.
system.l2cache.tags.warmup_cycle                86000                       # Cycle when the warmup percentage was hit.
system.l2cache.tags.occ_blocks::.writebacks   153.277042                       # Average occupied blocks per requestor
system.l2cache.tags.occ_blocks::.cpu.inst   226.390446                       # Average occupied blocks per requestor
system.l2cache.tags.occ_blocks::.cpu.data 15952.694250                       # Average occupied blocks per requestor
system.l2cache.tags.occ_percent::.writebacks     0.009355                       # Average percentage of cache occupancy
system.l2cache.tags.occ_percent::.cpu.inst     0.013818                       # Average percentage of cache occupancy
system.l2cache.tags.occ_percent::.cpu.data     0.973675                       # Average percentage of cache occupancy
system.l2cache.tags.occ_percent::total       0.996848                       # Average percentage of cache occupancy
system.l2cache.tags.occ_task_id_blocks::1024        16384                       # Occupied blocks per task id
system.l2cache.tags.age_task_id_blocks_1024::0           59                       # Occupied blocks per task id
system.l2cache.tags.age_task_id_blocks_1024::1          138                       # Occupied blocks per task id
system.l2cache.tags.age_task_id_blocks_1024::2         1573                       # Occupied blocks per task id
system.l2cache.tags.age_task_id_blocks_1024::3          576                       # Occupied blocks per task id
system.l2cache.tags.age_task_id_blocks_1024::4        14038                       # Occupied blocks per task id
system.l2cache.tags.occ_task_id_percent::1024            1                       # Percentage of cache occupancy per task id
system.l2cache.tags.tag_accesses            106295933                       # Number of tag accesses
system.l2cache.tags.data_accesses           106295933                       # Number of data accesses
system.l2cache.tags.power_state.pwrStateResidencyTicks::UNDEFINED 1238448962000                       # Cumulative time (in ticks) in various power states
system.mem_ctrl.avgPriority_.writebacks::samples     27706.00                       # Average QoS priority value for accepted requests
system.mem_ctrl.avgPriority_.cpu.inst::samples      7175.00                       # Average QoS priority value for accepted requests
system.mem_ctrl.avgPriority_.cpu.data::samples    240874.00                       # Average QoS priority value for accepted requests
system.mem_ctrl.priorityMinLatency       0.000000018750                       # per QoS priority minimum request to response latency (s)
system.mem_ctrl.priorityMaxLatency       0.129005646500                       # per QoS priority maximum request to response latency (s)
system.mem_ctrl.numReadWriteTurnArounds          1572                       # Number of turnarounds from READ to WRITE
system.mem_ctrl.numWriteReadTurnArounds          1572                       # Number of turnarounds from WRITE to READ
system.mem_ctrl.numStayReadState               847936                       # Number of times bus staying in READ state
system.mem_ctrl.numStayWriteState               26180                       # Number of times bus staying in WRITE state
system.mem_ctrl.readReqs                       255761                       # Number of read requests accepted
system.mem_ctrl.writeReqs                       34165                       # Number of write requests accepted
system.mem_ctrl.readBursts                     255761                       # Number of controller read bursts, including those serviced by the write queue
system.mem_ctrl.writeBursts                     34165                       # Number of controller write bursts, including those merged in the write queue
system.mem_ctrl.servicedByWrQ                    7712                       # Number of controller read bursts serviced by the write queue
system.mem_ctrl.mergedWrBursts                   6459                       # Number of controller write bursts merged with an existing one
system.mem_ctrl.neitherReadNorWriteReqs             0                       # Number of requests that are neither read nor write
system.mem_ctrl.avgRdQLen                        1.00                       # Average read queue length when enqueuing
system.mem_ctrl.avgWrQLen                       25.66                       # Average write queue length when enqueuing
system.mem_ctrl.numRdRetry                          0                       # Number of times read queue was full causing retry
system.mem_ctrl.numWrRetry                          0                       # Number of times write queue was full causing retry
system.mem_ctrl.readPktSize::0                      0                       # Read request sizes (log2)
system.mem_ctrl.readPktSize::1                      0                       # Read request sizes (log2)
system.mem_ctrl.readPktSize::2                      0                       # Read request sizes (log2)
system.mem_ctrl.readPktSize::3                      0                       # Read request sizes (log2)
system.mem_ctrl.readPktSize::4                      0                       # Read request sizes (log2)
system.mem_ctrl.readPktSize::5                      0                       # Read request sizes (log2)
system.mem_ctrl.readPktSize::6                 255761                       # Read request sizes (log2)
system.mem_ctrl.writePktSize::0                     0                       # Write request sizes (log2)
system.mem_ctrl.writePktSize::1                     0                       # Write request sizes (log2)
system.mem_ctrl.writePktSize::2                     0                       # Write request sizes (log2)
system.mem_ctrl.writePktSize::3                     0                       # Write request sizes (log2)
system.mem_ctrl.writePktSize::4                     0                       # Write request sizes (log2)
system.mem_ctrl.writePktSize::5                     0                       # Write request sizes (log2)
system.mem_ctrl.writePktSize::6                 34165                       # Write request sizes (log2)
system.mem_ctrl.rdQLenPdf::0                   247969                       # What read queue length does an incoming req see
system.mem_ctrl.rdQLenPdf::1                       80                       # What read queue length does an incoming req see
system.mem_ctrl.rdQLenPdf::2                        0                       # What read queue length does an incoming req see
system.mem_ctrl.rdQLenPdf::3                        0                       # What read queue length does an incoming req see
system.mem_ctrl.rdQLenPdf::4                        0                       # What read queue length does an incoming req see
system.mem_ctrl.rdQLenPdf::5                        0                       # What read queue length does an incoming req see
system.mem_ctrl.rdQLenPdf::6                        0                       # What read queue length does an incoming req see
system.mem_ctrl.rdQLenPdf::7                        0                       # What read queue length does an incoming req see
system.mem_ctrl.rdQLenPdf::8                        0                       # What read queue length does an incoming req see
system.mem_ctrl.rdQLenPdf::9                        0                       # What read queue length does an incoming req see
system.mem_ctrl.rdQLenPdf::10                       0                       # What read queue length does an incoming req see
system.mem_ctrl.rdQLenPdf::11                       0                       # What read queue length does an incoming req see
system.mem_ctrl.rdQLenPdf::12                       0                       # What read queue length does an incoming req see
system.mem_ctrl.rdQLenPdf::13                       0                       # What read queue length does an incoming req see
system.mem_ctrl.rdQLenPdf::14                       0                       # What read queue length does an incoming req see
system.mem_ctrl.rdQLenPdf::15                       0                       # What read queue length does an incoming req see
system.mem_ctrl.rdQLenPdf::16                       0                       # What read queue length does an incoming req see
system.mem_ctrl.rdQLenPdf::17                       0                       # What read queue length does an incoming req see
system.mem_ctrl.rdQLenPdf::18                       0                       # What read queue length does an incoming req see
system.mem_ctrl.rdQLenPdf::19                       0                       # What read queue length does an incoming req see
system.mem_ctrl.rdQLenPdf::20                       0                       # What read queue length does an incoming req see
system.mem_ctrl.rdQLenPdf::21                       0                       # What read queue length does an incoming req see
system.mem_ctrl.rdQLenPdf::22                       0                       # What read queue length does an incoming req see
system.mem_ctrl.rdQLenPdf::23                       0                       # What read queue length does an incoming req see
system.mem_ctrl.rdQLenPdf::24                       0                       # What read queue length does an incoming req see
system.mem_ctrl.rdQLenPdf::25                       0                       # What read queue length does an incoming req see
system.mem_ctrl.rdQLenPdf::26                       0                       # What read queue length does an incoming req see
system.mem_ctrl.rdQLenPdf::27                       0                       # What read queue length does an incoming req see
system.mem_ctrl.rdQLenPdf::28                       0                       # What read queue length does an incoming req see
system.mem_ctrl.rdQLenPdf::29                       0                       # What read queue length does an incoming req see
system.mem_ctrl.rdQLenPdf::30                       0                       # What read queue length does an incoming req see
system.mem_ctrl.rdQLenPdf::31                       0                       # What read queue length does an incoming req see
system.mem_ctrl.wrQLenPdf::0                        1                       # What write queue length does an incoming req see
system.mem_ctrl.wrQLenPdf::1                        1                       # What write queue length does an incoming req see
system.mem_ctrl.wrQLenPdf::2                        1                       # What write queue length does an incoming req see
system.mem_ctrl.wrQLenPdf::3                        1                       # What write queue length does an incoming req see
system.mem_ctrl.wrQLenPdf::4                        1                       # What write queue length does an incoming req see
system.mem_ctrl.wrQLenPdf::5                        1                       # What write queue length does an incoming req see
system.mem_ctrl.wrQLenPdf::6                        1                       # What write queue length does an incoming req see
system.mem_ctrl.wrQLenPdf::7                        1                       # What write queue length does an incoming req see
system.mem_ctrl.wrQLenPdf::8                        1                       # What write queue length does an incoming req see
system.mem_ctrl.wrQLenPdf::9                        1                       # What write queue length does an incoming req see
system.mem_ctrl.wrQLenPdf::10                       1                       # What write queue length does an incoming req see
system.mem_ctrl.wrQLenPdf::11                       1                       # What write queue length does an incoming req see
system.mem_ctrl.wrQLenPdf::12                       1                       # What write queue length does an incoming req see
system.mem_ctrl.wrQLenPdf::13                       1                       # What write queue length does an incoming req see
system.mem_ctrl.wrQLenPdf::14                       1                       # What write queue length does an incoming req see
system.mem_ctrl.wrQLenPdf::15                    1258                       # What write queue length does an incoming req see
system.mem_ctrl.wrQLenPdf::16                    1271                       # What write queue length does an incoming req see
system.mem_ctrl.wrQLenPdf::17                    1573                       # What write queue length does an incoming req see
system.mem_ctrl.wrQLenPdf::18                    1574                       # What write queue length does an incoming req see
system.mem_ctrl.wrQLenPdf::19                    1573                       # What write queue length does an incoming req see
system.mem_ctrl.wrQLenPdf::20                    1574                       # What write queue length does an incoming req see
system.mem_ctrl.wrQLenPdf::21                    1573                       # What write queue length does an incoming req see
system.mem_ctrl.wrQLenPdf::22                    1573                       # What write queue length does an incoming req see
system.mem_ctrl.wrQLenPdf::23                    1574                       # What write queue length does an incoming req see
system.mem_ctrl.wrQLenPdf::24                    1572                       # What write queue length does an incoming req see
system.mem_ctrl.wrQLenPdf::25                    1572                       # What write queue length does an incoming req see
system.mem_ctrl.wrQLenPdf::26                    1572                       # What write queue length does an incoming req see
system.mem_ctrl.wrQLenPdf::27                    1572                       # What write queue length does an incoming req see
system.mem_ctrl.wrQLenPdf::28                    1572                       # What write queue length does an incoming req see
system.mem_ctrl.wrQLenPdf::29                    1572                       # What write queue length does an incoming req see
system.mem_ctrl.wrQLenPdf::30                    1572                       # What write queue length does an incoming req see
system.mem_ctrl.wrQLenPdf::31                    1572                       # What write queue length does an incoming req see
system.mem_ctrl.wrQLenPdf::32                    1572                       # What write queue length does an incoming req see
system.mem_ctrl.wrQLenPdf::33                       0                       # What write queue length does an incoming req see
system.mem_ctrl.wrQLenPdf::34                       0                       # What write queue length does an incoming req see
system.mem_ctrl.wrQLenPdf::35                       0                       # What write queue length does an incoming req see
system.mem_ctrl.wrQLenPdf::36                       0                       # What write queue length does an incoming req see
system.mem_ctrl.wrQLenPdf::37                       0                       # What write queue length does an incoming req see
system.mem_ctrl.wrQLenPdf::38                       0                       # What write queue length does an incoming req see
system.mem_ctrl.wrQLenPdf::39                       0                       # What write queue length does an incoming req see
system.mem_ctrl.wrQLenPdf::40                       0                       # What write queue length does an incoming req see
system.mem_ctrl.wrQLenPdf::41                       0                       # What write queue length does an incoming req see
system.mem_ctrl.wrQLenPdf::42                       0                       # What write queue length does an incoming req see
system.mem_ctrl.wrQLenPdf::43                       0                       # What write queue length does an incoming req see
system.mem_ctrl.wrQLenPdf::44                       0                       # What write queue length does an incoming req see
system.mem_ctrl.wrQLenPdf::45                       0                       # What write queue length does an incoming req see
system.mem_ctrl.wrQLenPdf::46                       0                       # What write queue length does an incoming req see
system.mem_ctrl.wrQLenPdf::47                       0                       # What write queue length does an incoming req see
system.mem_ctrl.wrQLenPdf::48                       0                       # What write queue length does an incoming req see
system.mem_ctrl.wrQLenPdf::49                       0                       # What write queue length does an incoming req see
system.mem_ctrl.wrQLenPdf::50                       0                       # What write queue length does an incoming req see
system.mem_ctrl.wrQLenPdf::51                       0                       # What write queue length does an incoming req see
system.mem_ctrl.wrQLenPdf::52                       0                       # What write queue length does an incoming req see
system.mem_ctrl.wrQLenPdf::53                       0                       # What write queue length does an incoming req see
system.mem_ctrl.wrQLenPdf::54                       0                       # What write queue length does an incoming req see
system.mem_ctrl.wrQLenPdf::55                       0                       # What write queue length does an incoming req see
system.mem_ctrl.wrQLenPdf::56                       0                       # What write queue length does an incoming req see
system.mem_ctrl.wrQLenPdf::57                       0                       # What write queue length does an incoming req see
system.mem_ctrl.wrQLenPdf::58                       0                       # What write queue length does an incoming req see
system.mem_ctrl.wrQLenPdf::59                       0                       # What write queue length does an incoming req see
system.mem_ctrl.wrQLenPdf::60                       0                       # What write queue length does an incoming req see
system.mem_ctrl.wrQLenPdf::61                       0                       # What write queue length does an incoming req see
system.mem_ctrl.wrQLenPdf::62                       0                       # What write queue length does an incoming req see
system.mem_ctrl.wrQLenPdf::63                       0                       # What write queue length does an incoming req see
system.mem_ctrl.rdPerTurnAround::samples         1572                       # Reads before turning the bus around for writes
system.mem_ctrl.rdPerTurnAround::mean      157.768448                       # Reads before turning the bus around for writes
system.mem_ctrl.rdPerTurnAround::gmean      27.558655                       # Reads before turning the bus around for writes
system.mem_ctrl.rdPerTurnAround::stdev     949.715024                       # Reads before turning the bus around for writes
system.mem_ctrl.rdPerTurnAround::0-1023          1538     97.84%     97.84% # Reads before turning the bus around for writes
system.mem_ctrl.rdPerTurnAround::1024-2047            3      0.19%     98.03% # Reads before turning the bus around for writes
system.mem_ctrl.rdPerTurnAround::2048-3071            8      0.51%     98.54% # Reads before turning the bus around for writes
system.mem_ctrl.rdPerTurnAround::3072-4095            6      0.38%     98.92% # Reads before turning the bus around for writes
system.mem_ctrl.rdPerTurnAround::4096-5119            1      0.06%     98.98% # Reads before turning the bus around for writes
system.mem_ctrl.rdPerTurnAround::6144-7167            2      0.13%     99.11% # Reads before turning the bus around for writes
system.mem_ctrl.rdPerTurnAround::7168-8191            1      0.06%     99.17% # Reads before turning the bus around for writes
system.mem_ctrl.rdPerTurnAround::8192-9215           12      0.76%     99.94% # Reads before turning the bus around for writes
system.mem_ctrl.rdPerTurnAround::16384-17407            1      0.06%    100.00% # Reads before turning the bus around for writes
system.mem_ctrl.rdPerTurnAround::total           1572                       # Reads before turning the bus around for writes
system.mem_ctrl.wrPerTurnAround::samples         1572                       # Writes before turning the bus around for reads
system.mem_ctrl.wrPerTurnAround::mean       17.611323                       # Writes before turning the bus around for reads
system.mem_ctrl.wrPerTurnAround::gmean      17.592592                       # Writes before turning the bus around for reads
system.mem_ctrl.wrPerTurnAround::stdev       0.793641                       # Writes before turning the bus around for reads
system.mem_ctrl.wrPerTurnAround::16               302     19.21%     19.21% # Writes before turning the bus around for reads
system.mem_ctrl.wrPerTurnAround::17                13      0.83%     20.04% # Writes before turning the bus around for reads
system.mem_ctrl.wrPerTurnAround::18              1251     79.58%     99.62% # Writes before turning the bus around for reads
system.mem_ctrl.wrPerTurnAround::19                 6      0.38%    100.00% # Writes before turning the bus around for reads
system.mem_ctrl.wrPerTurnAround::total           1572                       # Writes before turning the bus around for reads
system.mem_ctrl.bytesReadWrQ                   493568                       # Total number of bytes read from write queue
system.mem_ctrl.bytesReadSys                 16368704                       # Total read bytes from the system interface side
system.mem_ctrl.bytesWrittenSys               2186560                       # Total written bytes from the system interface side
[...]
system.mem_ctrl.requestorReadRate::.cpu.data 12447776.592346968129                       # Per-requestor bytes read from memory rate (Bytes/sec)
system.mem_ctrl.requestorWriteRate::.writebacks 1430692.789421547437                       # Per-requestor bytes write to memory rate (Bytes/sec)
system.mem_ctrl.requestorReadAccesses::.cpu.inst         7175                       # Per-requestor read serviced memory accesses
system.mem_ctrl.requestorReadAccesses::.cpu.data       248586                       # Per-requestor read serviced memory accesses
system.mem_ctrl.requestorWriteAccesses::.writebacks        34165                       # Per-requestor write serviced memory accesses
system.mem_ctrl.requestorReadTotalLat::.cpu.inst    204471250                       # Per-requestor read total memory access latency
system.mem_ctrl.requestorReadTotalLat::.cpu.data   6399153500                       # Per-requestor read total memory access latency
system.mem_ctrl.requestorWriteTotalLat::.writebacks 31444478063500                       # Per-requestor write total memory access latency
system.mem_ctrl.requestorReadAvgLat::.cpu.inst     28497.74                       # Per-requestor read average memory access latency
system.mem_ctrl.requestorReadAvgLat::.cpu.data     25742.21                       # Per-requestor read average memory access latency
system.mem_ctrl.requestorWriteAvgLat::.writebacks 920371083.37                       # Per-requestor write average memory access latency
system.mem_ctrl.dram.bytes_read::.cpu.inst       459200                       # Number of bytes read from this memory
system.mem_ctrl.dram.bytes_read::.cpu.data     15909504                       # Number of bytes read from this memory
system.mem_ctrl.dram.bytes_read::total       16368704                       # Number of bytes read from this memory
system.mem_ctrl.dram.bytes_inst_read::.cpu.inst       459200                       # Number of instructions bytes read from this memory
system.mem_ctrl.dram.bytes_inst_read::total       459200                       # Number of instructions bytes read from this memory
system.mem_ctrl.dram.bytes_written::.writebacks      2186560                       # Number of bytes written to this memory
system.mem_ctrl.dram.bytes_written::total      2186560                       # Number of bytes written to this memory
system.mem_ctrl.dram.num_reads::.cpu.inst         7175                       # Number of read requests responded to by this memory
system.mem_ctrl.dram.num_reads::.cpu.data       248586                       # Number of read requests responded to by this memory
system.mem_ctrl.dram.num_reads::total          255761                       # Number of read requests responded to by this memory
system.mem_ctrl.dram.num_writes::.writebacks        34165                       # Number of write requests responded to by this memory
system.mem_ctrl.dram.num_writes::total          34165                       # Number of write requests responded to by this memory
system.mem_ctrl.dram.bw_read::.cpu.inst        370786                       # Total read bandwidth from this memory (bytes/s)
system.mem_ctrl.dram.bw_read::.cpu.data      12846314                       # Total read bandwidth from this memory (bytes/s)
system.mem_ctrl.dram.bw_read::total          13217100                       # Total read bandwidth from this memory (bytes/s)
system.mem_ctrl.dram.bw_inst_read::.cpu.inst       370786                       # Instruction read bandwidth from this memory (bytes/s)
system.mem_ctrl.dram.bw_inst_read::total       370786                       # Instruction read bandwidth from this memory (bytes/s)
system.mem_ctrl.dram.bw_write::.writebacks      1765563                       # Write bandwidth from this memory (bytes/s)
system.mem_ctrl.dram.bw_write::total          1765563                       # Write bandwidth from this memory (bytes/s)
system.mem_ctrl.dram.bw_total::.writebacks      1765563                       # Total bandwidth to/from this memory (bytes/s)
system.mem_ctrl.dram.bw_total::.cpu.inst       370786                       # Total bandwidth to/from this memory (bytes/s)
system.mem_ctrl.dram.bw_total::.cpu.data     12846314                       # Total bandwidth to/from this memory (bytes/s)
system.mem_ctrl.dram.bw_total::total         14982663                       # Total bandwidth to/from this memory (bytes/s)
system.mem_ctrl.dram.readBursts                248049                       # Number of DRAM read bursts
system.mem_ctrl.dram.writeBursts                27685                       # Number of DRAM write bursts
system.mem_ctrl.dram.perBankRdBursts::0          9486                       # Per bank write bursts
system.mem_ctrl.dram.perBankRdBursts::1          5136                       # Per bank write bursts
system.mem_ctrl.dram.perBankRdBursts::2          3604                       # Per bank write bursts
system.mem_ctrl.dram.perBankRdBursts::3          3384                       # Per bank write bursts
system.mem_ctrl.dram.perBankRdBursts::4          3934                       # Per bank write bursts
system.mem_ctrl.dram.perBankRdBursts::5          6713                       # Per bank write bursts
system.mem_ctrl.dram.perBankRdBursts::6         78183                       # Per bank write bursts
system.mem_ctrl.dram.perBankRdBursts::7         84834                       # Per bank write bursts
system.mem_ctrl.dram.perBankRdBursts::8          8155                       # Per bank write bursts
system.mem_ctrl.dram.perBankRdBursts::9          3200                       # Per bank write bursts
system.mem_ctrl.dram.perBankRdBursts::10         4533                       # Per bank write bursts
system.mem_ctrl.dram.perBankRdBursts::11         2408                       # Per bank write bursts
system.mem_ctrl.dram.perBankRdBursts::12         3241                       # Per bank write bursts
system.mem_ctrl.dram.perBankRdBursts::13         4706                       # Per bank write bursts
system.mem_ctrl.dram.perBankRdBursts::14         8921                       # Per bank write bursts
system.mem_ctrl.dram.perBankRdBursts::15        17611                       # Per bank write bursts
system.mem_ctrl.dram.perBankWrBursts::0          2308                       # Per bank write bursts
system.mem_ctrl.dram.perBankWrBursts::1          1837                       # Per bank write bursts
system.mem_ctrl.dram.perBankWrBursts::2          1954                       # Per bank write bursts
system.mem_ctrl.dram.perBankWrBursts::3          1991                       # Per bank write bursts
system.mem_ctrl.dram.perBankWrBursts::4          1348                       # Per bank write bursts
system.mem_ctrl.dram.perBankWrBursts::5          1484                       # Per bank write bursts
system.mem_ctrl.dram.perBankWrBursts::6          2438                       # Per bank write bursts
system.mem_ctrl.dram.perBankWrBursts::7          2650                       # Per bank write bursts
system.mem_ctrl.dram.perBankWrBursts::8          1778                       # Per bank write bursts
system.mem_ctrl.dram.perBankWrBursts::9           785                       # Per bank write bursts
system.mem_ctrl.dram.perBankWrBursts::10          721                       # Per bank write bursts
system.mem_ctrl.dram.perBankWrBursts::11          918                       # Per bank write bursts
system.mem_ctrl.dram.perBankWrBursts::12         1177                       # Per bank write bursts
system.mem_ctrl.dram.perBankWrBursts::13         1978                       # Per bank write bursts
system.mem_ctrl.dram.perBankWrBursts::14         1891                       # Per bank write bursts
system.mem_ctrl.dram.perBankWrBursts::15         2427                       # Per bank write bursts
system.mem_ctrl.dram.totQLat               1952706000                       # Total ticks spent queuing
system.mem_ctrl.dram.totBusLat             1240245000                       # Total ticks spent in databus transfers
system.mem_ctrl.dram.totMemAccLat          6603624750                       # Total ticks spent from burst creation until serviced by the DRAM
system.mem_ctrl.dram.avgQLat                  7872.26                       # Average queueing delay per DRAM burst
system.mem_ctrl.dram.avgBusLat                5000.00                       # Average bus latency per DRAM burst
system.mem_ctrl.dram.avgMemAccLat            26622.26                       # Average memory access latency per DRAM burst
system.mem_ctrl.dram.readRowHits               194982                       # Number of row buffer hits during reads
system.mem_ctrl.dram.writeRowHits               20650                       # Number of row buffer hits during writes
system.mem_ctrl.dram.readRowHitRate             78.61                       # Row buffer hit rate for reads
system.mem_ctrl.dram.writeRowHitRate            74.59                       # Row buffer hit rate for writes
system.mem_ctrl.dram.bytesPerActivate::samples        60095                       # Bytes accessed per row activation
system.mem_ctrl.dram.bytesPerActivate::mean   293.631084                       # Bytes accessed per row activation
system.mem_ctrl.dram.bytesPerActivate::gmean   176.860959                       # Bytes accessed per row activation
system.mem_ctrl.dram.bytesPerActivate::stdev   298.148257                       # Bytes accessed per row activation
system.mem_ctrl.dram.bytesPerActivate::0-127        24121     40.14%     40.14% # Bytes accessed per row activation
system.mem_ctrl.dram.bytesPerActivate::128-255        11638     19.37%     59.50% # Bytes accessed per row activation
system.mem_ctrl.dram.bytesPerActivate::256-383         5807      9.66%     69.17% # Bytes accessed per row activation
system.mem_ctrl.dram.bytesPerActivate::384-511         4924      8.19%     77.36% # Bytes accessed per row activation
system.mem_ctrl.dram.bytesPerActivate::512-639         3004      5.00%     82.36% # Bytes accessed per row activation
system.mem_ctrl.dram.bytesPerActivate::640-767         2659      4.42%     86.78% # Bytes accessed per row activation
system.mem_ctrl.dram.bytesPerActivate::768-895         3248      5.40%     92.19% # Bytes accessed per row activation
system.mem_ctrl.dram.bytesPerActivate::896-1023         1291      2.15%     94.34% # Bytes accessed per row activation
system.mem_ctrl.dram.bytesPerActivate::1024-1151         3403      5.66%    100.00% # Bytes accessed per row activation
system.mem_ctrl.dram.bytesPerActivate::total        60095                       # Bytes accessed per row activation
system.mem_ctrl.dram.bytesRead               15875136                       # Total number of bytes read from DRAM
system.mem_ctrl.dram.bytesWritten             1771840                       # Total number of bytes written to DRAM
system.mem_ctrl.dram.avgRdBW                12.818563                       # Average DRAM read bandwidth in MiBytes/s
system.mem_ctrl.dram.avgWrBW                 1.430693                       # Average DRAM write bandwidth in MiBytes/s
system.mem_ctrl.dram.peakBW                  12800.00                       # Theoretical peak bandwidth in MiByte/s
system.mem_ctrl.dram.busUtil                     0.11                       # Data bus utilization in percentage
system.mem_ctrl.dram.busUtilRead                 0.10                       # Data bus utilization in percentage for reads
system.mem_ctrl.dram.busUtilWrite                0.01                       # Data bus utilization in percentage for writes
system.mem_ctrl.dram.pageHitRate                78.20                       # Row buffer hit rate, read and write combined
system.mem_ctrl.dram.power_state.pwrStateResidencyTicks::UNDEFINED 1238448962000                       # Cumulative time (in ticks) in various power states
system.mem_ctrl.dram.rank0.actEnergy        297252480                       # Energy for activate commands per rank (pJ)
system.mem_ctrl.dram.rank0.preEnergy        157982055                       # Energy for precharge commands per rank (pJ)
system.mem_ctrl.dram.rank0.readEnergy      1394256360                       # Energy for read commands per rank (pJ)
system.mem_ctrl.dram.rank0.writeEnergy       83572200                       # Energy for write commands per rank (pJ)
system.mem_ctrl.dram.rank0.refreshEnergy 97761565200.000015                       # Energy for refresh commands per rank (pJ)
system.mem_ctrl.dram.rank0.actBackEnergy  91648970760                       # Energy for active background per rank (pJ)
system.mem_ctrl.dram.rank0.preBackEnergy 398386320960                       # Energy for precharge background per rank (pJ)
system.mem_ctrl.dram.rank0.actPowerDownEnergy            0                       # Energy for active power-down per rank (pJ)
system.mem_ctrl.dram.rank0.prePowerDownEnergy            0                       # Energy for precharge power-down per rank (pJ)
system.mem_ctrl.dram.rank0.selfRefreshEnergy            0                       # Energy for self refresh per rank (pJ)
system.mem_ctrl.dram.rank0.totalEnergy   589729920015                       # Total energy per rank (pJ)
system.mem_ctrl.dram.rank0.averagePower    476.184274                       # Core power per rank (mW)
system.mem_ctrl.dram.rank0.totalIdleTime            0                       # Total Idle time Per DRAM Rank
system.mem_ctrl.dram.rank0.pwrStateTime::IDLE 1034815366250                       # Time in different power states
system.mem_ctrl.dram.rank0.pwrStateTime::REF  41354300000                       # Time in different power states
system.mem_ctrl.dram.rank0.pwrStateTime::SREF            0                       # Time in different power states
system.mem_ctrl.dram.rank0.pwrStateTime::PRE_PDN            0                       # Time in different power states
system.mem_ctrl.dram.rank0.pwrStateTime::ACT 162279295750                       # Time in different power states
system.mem_ctrl.dram.rank0.pwrStateTime::ACT_PDN            0                       # Time in different power states
system.mem_ctrl.dram.rank1.actEnergy        131875800                       # Energy for activate commands per rank (pJ)
system.mem_ctrl.dram.rank1.preEnergy         70078470                       # Energy for precharge commands per rank (pJ)
system.mem_ctrl.dram.rank1.readEnergy       376813500                       # Energy for read commands per rank (pJ)
system.mem_ctrl.dram.rank1.writeEnergy       60943500                       # Energy for write commands per rank (pJ)
system.mem_ctrl.dram.rank1.refreshEnergy 97761565200.000015                       # Energy for refresh commands per rank (pJ)
system.mem_ctrl.dram.rank1.actBackEnergy  42697810230                       # Energy for active background per rank (pJ)
system.mem_ctrl.dram.rank1.preBackEnergy 439608350880                       # Energy for precharge background per rank (pJ)
system.mem_ctrl.dram.rank1.actPowerDownEnergy            0                       # Energy for active power-down per rank (pJ)
system.mem_ctrl.dram.rank1.prePowerDownEnergy            0                       # Energy for precharge power-down per rank (pJ)
system.mem_ctrl.dram.rank1.selfRefreshEnergy            0                       # Energy for self refresh per rank (pJ)
system.mem_ctrl.dram.rank1.totalEnergy   580707437580                       # Total energy per rank (pJ)
system.mem_ctrl.dram.rank1.averagePower    468.898966                       # Core power per rank (mW)
system.mem_ctrl.dram.rank1.totalIdleTime            0                       # Total Idle time Per DRAM Rank
system.mem_ctrl.dram.rank1.pwrStateTime::IDLE 1142442641250                       # Time in different power states
system.mem_ctrl.dram.rank1.pwrStateTime::REF  41354300000                       # Time in different power states
system.mem_ctrl.dram.rank1.pwrStateTime::SREF            0                       # Time in different power states
system.mem_ctrl.dram.rank1.pwrStateTime::PRE_PDN            0                       # Time in different power states
system.mem_ctrl.dram.rank1.pwrStateTime::ACT  54652020750                       # Time in different power states
system.mem_ctrl.dram.rank1.pwrStateTime::ACT_PDN            0                       # Time in different power states
system.mem_ctrl.power_state.pwrStateResidencyTicks::UNDEFINED 1238448962000                       # Cumulative time (in ticks) in various power states
system.membus.trans_dist::ReadResp             226641                       # Transaction distribution
system.membus.trans_dist::WritebackDirty        34165                       # Transaction distribution
system.membus.trans_dist::CleanEvict           205171                       # Transaction distribution
system.membus.trans_dist::ReadExReq             29120                       # Transaction distribution
system.membus.trans_dist::ReadExResp            29120                       # Transaction distribution
system.membus.trans_dist::ReadSharedReq        226641                       # Transaction distribution
system.membus.pkt_count_system.l2cache.mem_side_port::system.mem_ctrl.port       750858                       # Packet count per connected requestor and responder (bytes)
system.membus.pkt_count_system.l2cache.mem_side_port::total       750858                       # Packet count per connected requestor and responder (bytes)
system.membus.pkt_count::total                 750858                       # Packet count per connected requestor and responder (bytes)
system.membus.pkt_size_system.l2cache.mem_side_port::system.mem_ctrl.port     18555264                       # Cumulative packet size per connected requestor and responder (bytes)
system.membus.pkt_size_system.l2cache.mem_side_port::total     18555264                       # Cumulative packet size per connected requestor and responder (bytes)
system.membus.pkt_size::total                18555264                       # Cumulative packet size per connected requestor and responder (bytes)
system.membus.snoops                                0                       # Total snoops (count)
system.membus.snoopTraffic                          0                       # Total snoop traffic (bytes)
system.membus.snoop_fanout::samples            255761                       # Request fanout histogram
system.membus.snoop_fanout::mean                    0                       # Request fanout histogram
system.membus.snoop_fanout::stdev                   0                       # Request fanout histogram
system.membus.snoop_fanout::underflows              0      0.00%      0.00% # Request fanout histogram
system.membus.snoop_fanout::0                  255761    100.00%    100.00% # Request fanout histogram
system.membus.snoop_fanout::1                       0      0.00%    100.00% # Request fanout histogram
system.membus.snoop_fanout::overflows               0      0.00%    100.00% # Request fanout histogram
system.membus.snoop_fanout::min_value               0                       # Request fanout histogram
system.membus.snoop_fanout::max_value               0                       # Request fanout histogram
system.membus.snoop_fanout::total              255761                       # Request fanout histogram
system.membus.power_state.pwrStateResidencyTicks::UNDEFINED 1238448962000                       # Cumulative time (in ticks) in various power states
system.membus.reqLayer2.occupancy           631757000                       # Layer occupancy (ticks)
system.membus.reqLayer2.utilization               0.1                       # Layer utilization (%)
system.membus.respLayer0.occupancy         1353917500                       # Layer occupancy (ticks)
system.membus.respLayer0.utilization              0.1                       # Layer utilization (%)

---------- End Simulation Statistics   ----------
