
---------- Begin Simulation Statistics ----------
final_tick                                 3873589000                       # Number of ticks from beginning of simulation (restored from checkpoints and never reset)
host_inst_rate                                  40675                       # Simulator instruction rate (inst/s)
host_mem_usage                                 647136                       # Number of bytes of host memory used
host_op_rate                                    63062                       # Simulator op (including micro ops) rate (op/s)
host_seconds                                    17.94                       # Real time elapsed on the host
host_tick_rate                              215867163                       # Simulator tick rate (ticks/s)
sim_freq                                 1000000000000                       # Frequency of simulated ticks
sim_insts                                      729871                       # Number of instructions simulated
sim_ops                                       1131598                       # Number of ops (including micro ops) simulated
sim_seconds                                  0.003874                       # Number of seconds simulated
sim_ticks                                  3873589000                       # Number of ticks simulated
system.cpu.cc_regfile_reads                    667553                       # number of cc regfile reads
system.cpu.cc_regfile_writes                  1056502                       # number of cc regfile writes
system.cpu.committedInsts                      729871                       # Number of Instructions Simulated
system.cpu.committedOps                       1131598                       # Number of Ops (including micro ops) Simulated
system.cpu.cpi                               5.307226                       # CPI: Cycles Per Instruction
system.cpu.cpi_total                         5.307226                       # CPI: Total CPI of All Threads
system.cpu.fp_regfile_reads                      1737                       # number of floating regfile reads
system.cpu.fp_regfile_writes                      805                       # number of floating regfile writes
system.cpu.idleCycles                           21202                       # Total number of cycles that the CPU has spent unscheduled due to idling
system.cpu.iew.branchMispredicts                  700                       # Number of branch mispredicts detected at execute
system.cpu.iew.exec_branches                    68128                       # Number of branches executed
system.cpu.iew.exec_nop                             0                       # number of nop insts executed
system.cpu.iew.exec_rate                     0.294656                       # Inst execution rate
system.cpu.iew.exec_refs                        70727                       # number of memory reference insts executed
system.cpu.iew.exec_stores                       2147                       # Number of stores executed
system.cpu.iew.exec_swp                             0                       # number of swp insts executed
system.cpu.iew.iewBlockCycles                 2592804                       # Number of cycles IEW is blocking
system.cpu.iew.iewDispLoadInsts                 68969                       # Number of dispatched load instructions
system.cpu.iew.iewDispNonSpecInsts                  0                       # Number of dispatched non-speculative instructions
system.cpu.iew.iewDispSquashedInsts                81                       # Number of squashed instructions skipped by dispatch
system.cpu.iew.iewDispStoreInsts                 2608                       # Number of dispatched store instructions
system.cpu.iew.iewDispatchedInsts             1145658                       # Number of instructions dispatched to IQ
system.cpu.iew.iewExecLoadInsts                 68580                       # Number of load instructions executed
system.cpu.iew.iewExecSquashedInsts               821                       # Number of squashed instructions skipped in execute
system.cpu.iew.iewExecutedInsts               1141375                       # Number of executed instructions
system.cpu.iew.iewIQFullEvents                     21                       # Number of times the IQ has become full, causing a stall
system.cpu.iew.iewIdleCycles                        0                       # Number of cycles IEW is idle
system.cpu.iew.iewLSQFullEvents                   658                       # Number of times the LSQ has become full, causing a stall
system.cpu.iew.iewSquashCycles                    619                       # Number of cycles IEW is squashing
system.cpu.iew.iewUnblockCycles                 63067                       # Number of cycles IEW is unblocking
system.cpu.iew.memOrderViolationEvents             17                       # Number of memory order violations
system.cpu.iew.predictedNotTakenIncorrect          645                       # Number of branches that were predicted not taken incorrectly
system.cpu.iew.predictedTakenIncorrect             55                       # Number of branches that were predicted taken incorrectly
system.cpu.iew.wb_consumers                   1907071                       # num instructions consuming a value
system.cpu.iew.wb_count                       1140511                       # cumulative count of insts written-back
system.cpu.iew.wb_fanout                     0.479481                       # average fanout of values written-back
system.cpu.iew.wb_producers                    914405                       # num instructions producing a value
system.cpu.iew.wb_rate                       0.294433                       # insts written-back per cycle
system.cpu.iew.wb_sent                        1140849                       # cumulative count of insts sent to commit
system.cpu.int_regfile_reads                  1740080                       # number of integer regfile reads
system.cpu.int_regfile_writes                 1069129                       # number of integer regfile writes
system.cpu.ipc                               0.188422                       # IPC: Instructions Per Cycle
system.cpu.ipc_total                         0.188422                       # IPC: Total IPC of All Threads
system.cpu.iq.FU_type_0::No_OpClass               699      0.06%      0.06% # Type of FU issued
system.cpu.iq.FU_type_0::IntAlu               1069867     93.67%     93.73% # Type of FU issued
system.cpu.iq.FU_type_0::IntMult                    6      0.00%     93.73% # Type of FU issued
system.cpu.iq.FU_type_0::IntDiv                    30      0.00%     93.73% # Type of FU issued
system.cpu.iq.FU_type_0::FloatAdd                 136      0.01%     93.74% # Type of FU issued
system.cpu.iq.FU_type_0::FloatCmp                   0      0.00%     93.74% # Type of FU issued
system.cpu.iq.FU_type_0::FloatCvt                   0      0.00%     93.74% # Type of FU issued
system.cpu.iq.FU_type_0::FloatMult                  0      0.00%     93.74% # Type of FU issued
system.cpu.iq.FU_type_0::FloatMultAcc               0      0.00%     93.74% # Type of FU issued
system.cpu.iq.FU_type_0::FloatDiv                   0      0.00%     93.74% # Type of FU issued
system.cpu.iq.FU_type_0::FloatMisc                  0      0.00%     93.74% # Type of FU issued
system.cpu.iq.FU_type_0::FloatSqrt                  0      0.00%     93.74% # Type of FU issued
system.cpu.iq.FU_type_0::SimdAdd                    0      0.00%     93.74% # Type of FU issued
system.cpu.iq.FU_type_0::SimdAddAcc                 0      0.00%     93.74% # Type of FU issued
system.cpu.iq.FU_type_0::SimdAlu                  164      0.01%     93.76% # Type of FU issued
system.cpu.iq.FU_type_0::SimdCmp                   12      0.00%     93.76% # Type of FU issued
system.cpu.iq.FU_type_0::SimdCvt                   78      0.01%     93.77% # Type of FU issued
system.cpu.iq.FU_type_0::SimdMisc                 248      0.02%     93.79% # Type of FU issued
system.cpu.iq.FU_type_0::SimdMult                   0      0.00%     93.79% # Type of FU issued
system.cpu.iq.FU_type_0::SimdMultAcc                0      0.00%     93.79% # Type of FU issued
system.cpu.iq.FU_type_0::SimdShift                  0      0.00%     93.79% # Type of FU issued
system.cpu.iq.FU_type_0::SimdShiftAcc               0      0.00%     93.79% # Type of FU issued
system.cpu.iq.FU_type_0::SimdDiv                    0      0.00%     93.79% # Type of FU issued
system.cpu.iq.FU_type_0::SimdSqrt                   0      0.00%     93.79% # Type of FU issued
system.cpu.iq.FU_type_0::SimdFloatAdd               0      0.00%     93.79% # Type of FU issued
system.cpu.iq.FU_type_0::SimdFloatAlu               0      0.00%     93.79% # Type of FU issued
system.cpu.iq.FU_type_0::SimdFloatCmp               0      0.00%     93.79% # Type of FU issued
system.cpu.iq.FU_type_0::SimdFloatCvt               0      0.00%     93.79% # Type of FU issued
system.cpu.iq.FU_type_0::SimdFloatDiv               0      0.00%     93.79% # Type of FU issued
system.cpu.iq.FU_type_0::SimdFloatMisc              0      0.00%     93.79% # Type of FU issued
system.cpu.iq.FU_type_0::SimdFloatMult              0      0.00%     93.79% # Type of FU issued
system.cpu.iq.FU_type_0::SimdFloatMultAcc            0      0.00%     93.79% # Type of FU issued
system.cpu.iq.FU_type_0::SimdFloatSqrt              0      0.00%     93.79% # Type of FU issued
system.cpu.iq.FU_type_0::SimdReduceAdd              0      0.00%     93.79% # Type of FU issued
system.cpu.iq.FU_type_0::SimdReduceAlu              0      0.00%     93.79% # Type of FU issued
system.cpu.iq.FU_type_0::SimdReduceCmp              0      0.00%     93.79% # Type of FU issued
system.cpu.iq.FU_type_0::SimdFloatReduceAdd            0      0.00%     93.79% # Type of FU issued
system.cpu.iq.FU_type_0::SimdFloatReduceCmp            0      0.00%     93.79% # Type of FU issued
system.cpu.iq.FU_type_0::SimdAes                    0      0.00%     93.79% # Type of FU issued
system.cpu.iq.FU_type_0::SimdAesMix                 0      0.00%     93.79% # Type of FU issued
system.cpu.iq.FU_type_0::SimdSha1Hash               0      0.00%     93.79% # Type of FU issued
system.cpu.iq.FU_type_0::SimdSha1Hash2              0      0.00%     93.79% # Type of FU issued
system.cpu.iq.FU_type_0::SimdSha256Hash             0      0.00%     93.79% # Type of FU issued
system.cpu.iq.FU_type_0::SimdSha256Hash2            0      0.00%     93.79% # Type of FU issued
system.cpu.iq.FU_type_0::SimdShaSigma2              0      0.00%     93.79% # Type of FU issued
system.cpu.iq.FU_type_0::SimdShaSigma3              0      0.00%     93.79% # Type of FU issued
system.cpu.iq.FU_type_0::SimdPredAlu                0      0.00%     93.79% # Type of FU issued
system.cpu.iq.FU_type_0::MemRead                68631      6.01%     99.80% # Type of FU issued
system.cpu.iq.FU_type_0::MemWrite                1682      0.15%     99.94% # Type of FU issued
system.cpu.iq.FU_type_0::FloatMemRead             105      0.01%     99.95% # Type of FU issued
system.cpu.iq.FU_type_0::FloatMemWrite            544      0.05%    100.00% # Type of FU issued
system.cpu.iq.FU_type_0::IprAccess                  0      0.00%    100.00% # Type of FU issued
system.cpu.iq.FU_type_0::InstPrefetch               0      0.00%    100.00% # Type of FU issued
system.cpu.iq.FU_type_0::total                1142202                       # Type of FU issued
system.cpu.iq.fp_alu_accesses                    1507                       # Number of floating point alu accesses
system.cpu.iq.fp_inst_queue_reads                2965                       # Number of floating instruction queue reads
system.cpu.iq.fp_inst_queue_wakeup_accesses         1413                       # Number of floating instruction queue wakeup accesses
system.cpu.iq.fp_inst_queue_writes               1737                       # Number of floating instruction queue writes
system.cpu.iq.fu_busy_cnt                         330                       # FU busy when requested
system.cpu.iq.fu_busy_rate                   0.000289                       # FU busy rate (busy events/executed inst)
system.cpu.iq.fu_full::No_OpClass                   0      0.00%      0.00% # attempts to use FU when none available
system.cpu.iq.fu_full::IntAlu                     229     69.39%     69.39% # attempts to use FU when none available
system.cpu.iq.fu_full::IntMult                      0      0.00%     69.39% # attempts to use FU when none available
system.cpu.iq.fu_full::IntDiv                       0      0.00%     69.39% # attempts to use FU when none available
system.cpu.iq.fu_full::FloatAdd                     0      0.00%     69.39% # attempts to use FU when none available
system.cpu.iq.fu_full::FloatCmp                     0      0.00%     69.39% # attempts to use FU when none available
system.cpu.iq.fu_full::FloatCvt                     0      0.00%     69.39% # attempts to use FU when none available
system.cpu.iq.fu_full::FloatMult                    0      0.00%     69.39% # attempts to use FU when none available
system.cpu.iq.fu_full::FloatMultAcc                 0      0.00%     69.39% # attempts to use FU when none available
system.cpu.iq.fu_full::FloatDiv                     0      0.00%     69.39% # attempts to use FU when none available
system.cpu.iq.fu_full::FloatMisc                    0      0.00%     69.39% # attempts to use FU when none available
system.cpu.iq.fu_full::FloatSqrt                    0      0.00%     69.39% # attempts to use FU when none available
system.cpu.iq.fu_full::SimdAdd                      0      0.00%     69.39% # attempts to use FU when none available
system.cpu.iq.fu_full::SimdAddAcc                   0      0.00%     69.39% # attempts to use FU when none available
system.cpu.iq.fu_full::SimdAlu                     11      3.33%     72.73% # attempts to use FU when none available
system.cpu.iq.fu_full::SimdCmp                      0      0.00%     72.73% # attempts to use FU when none available
system.cpu.iq.fu_full::SimdCvt                      5      1.52%     74.24% # attempts to use FU when none available
system.cpu.iq.fu_full::SimdMisc                     5      1.52%     75.76% # attempts to use FU when none available
system.cpu.iq.fu_full::SimdMult                     0      0.00%     75.76% # attempts to use FU when none available
system.cpu.iq.fu_full::SimdMultAcc                  0      0.00%     75.76% # attempts to use FU when none available
system.cpu.iq.fu_full::SimdShift                    0      0.00%     75.76% # attempts to use FU when none available
system.cpu.iq.fu_full::SimdShiftAcc                 0      0.00%     75.76% # attempts to use FU when none available
system.cpu.iq.fu_full::SimdDiv                      0      0.00%     75.76% # attempts to use FU when none available
system.cpu.iq.fu_full::SimdSqrt                     0      0.00%     75.76% # attempts to use FU when none available
system.cpu.iq.fu_full::SimdFloatAdd                 0      0.00%     75.76% # attempts to use FU when none available
system.cpu.iq.fu_full::SimdFloatAlu                 0      0.00%     75.76% # attempts to use FU when none available
system.cpu.iq.fu_full::SimdFloatCmp                 0      0.00%     75.76% # attempts to use FU when none available
system.cpu.iq.fu_full::SimdFloatCvt                 0      0.00%     75.76% # attempts to use FU when none available
system.cpu.iq.fu_full::SimdFloatDiv                 0      0.00%     75.76% # attempts to use FU when none available
system.cpu.iq.fu_full::SimdFloatMisc                0      0.00%     75.76% # attempts to use FU when none available
system.cpu.iq.fu_full::SimdFloatMult                0      0.00%     75.76% # attempts to use FU when none available
system.cpu.iq.fu_full::SimdFloatMultAcc             0      0.00%     75.76% # attempts to use FU when none available
system.cpu.iq.fu_full::SimdFloatSqrt                0      0.00%     75.76% # attempts to use FU when none available
system.cpu.iq.fu_full::SimdReduceAdd                0      0.00%     75.76% # attempts to use FU when none available
system.cpu.iq.fu_full::SimdReduceAlu                0      0.00%     75.76% # attempts to use FU when none available
system.cpu.iq.fu_full::SimdReduceCmp                0      0.00%     75.76% # attempts to use FU when none available
system.cpu.iq.fu_full::SimdFloatReduceAdd            0      0.00%     75.76% # attempts to use FU when none available
system.cpu.iq.fu_full::SimdFloatReduceCmp            0      0.00%     75.76% # attempts to use FU when none available
system.cpu.iq.fu_full::SimdAes                      0      0.00%     75.76% # attempts to use FU when none available
system.cpu.iq.fu_full::SimdAesMix                   0      0.00%     75.76% # attempts to use FU when none available
system.cpu.iq.fu_full::SimdSha1Hash                 0      0.00%     75.76% # attempts to use FU when none available
system.cpu.iq.fu_full::SimdSha1Hash2                0      0.00%     75.76% # attempts to use FU when none available
system.cpu.iq.fu_full::SimdSha256Hash               0      0.00%     75.76% # attempts to use FU when none available
system.cpu.iq.fu_full::SimdSha256Hash2              0      0.00%     75.76% # attempts to use FU when none available
system.cpu.iq.fu_full::SimdShaSigma2                0      0.00%     75.76% # attempts to use FU when none available
system.cpu.iq.fu_full::SimdShaSigma3                0      0.00%     75.76% # attempts to use FU when none available
system.cpu.iq.fu_full::SimdPredAlu                  0      0.00%     75.76% # attempts to use FU when none available
system.cpu.iq.fu_full::MemRead                     24      7.27%     83.03% # attempts to use FU when none available
system.cpu.iq.fu_full::MemWrite                    17      5.15%     88.18% # attempts to use FU when none available
system.cpu.iq.fu_full::FloatMemRead                 6      1.82%     90.00% # attempts to use FU when none available
system.cpu.iq.fu_full::FloatMemWrite               33     10.00%    100.00% # attempts to use FU when none available
system.cpu.iq.fu_full::IprAccess                    0      0.00%    100.00% # attempts to use FU when none available
system.cpu.iq.fu_full::InstPrefetch                 0      0.00%    100.00% # attempts to use FU when none available
system.cpu.iq.int_alu_accesses                1140326                       # Number of integer alu accesses
system.cpu.iq.int_inst_queue_reads            6134210                       # Number of integer instruction queue reads
system.cpu.iq.int_inst_queue_wakeup_accesses      1139098                       # Number of integer instruction queue wakeup accesses
system.cpu.iq.int_inst_queue_writes           1157984                       # Number of integer instruction queue writes
system.cpu.iq.iqInstsAdded                    1145658                       # Number of instructions added to the IQ (excludes non-spec)
system.cpu.iq.iqInstsIssued                   1142202                       # Number of instructions issued
system.cpu.iq.iqSquashedInstsExamined           14046                       # Number of squashed instructions iterated over during squash; mainly for profiling
system.cpu.iq.iqSquashedInstsIssued                59                       # Number of squashed instructions issued
system.cpu.iq.iqSquashedOperandsExamined        16917                       # Number of squashed operands that are examined and possibly removed from graph
system.cpu.iq.issued_per_cycle::samples       3852388                       # Number of insts issued each cycle
system.cpu.iq.issued_per_cycle::mean         0.296492                       # Number of insts issued each cycle
system.cpu.iq.issued_per_cycle::stdev        0.613073                       # Number of insts issued each cycle
system.cpu.iq.issued_per_cycle::underflows            0      0.00%      0.00% # Number of insts issued each cycle
system.cpu.iq.issued_per_cycle::0             2998456     77.83%     77.83% # Number of insts issued each cycle
system.cpu.iq.issued_per_cycle::1              582360     15.12%     92.95% # Number of insts issued each cycle
system.cpu.iq.issued_per_cycle::2              263559      6.84%     99.79% # Number of insts issued each cycle
system.cpu.iq.issued_per_cycle::3                4291      0.11%     99.90% # Number of insts issued each cycle
system.cpu.iq.issued_per_cycle::4                1192      0.03%     99.93% # Number of insts issued each cycle
system.cpu.iq.issued_per_cycle::5                1018      0.03%     99.96% # Number of insts issued each cycle
system.cpu.iq.issued_per_cycle::6                 824      0.02%     99.98% # Number of insts issued each cycle
system.cpu.iq.issued_per_cycle::7                 455      0.01%     99.99% # Number of insts issued each cycle
system.cpu.iq.issued_per_cycle::8                 233      0.01%    100.00% # Number of insts issued each cycle
system.cpu.iq.issued_per_cycle::overflows            0      0.00%    100.00% # Number of insts issued each cycle
system.cpu.iq.issued_per_cycle::min_value            0                       # Number of insts issued each cycle
system.cpu.iq.issued_per_cycle::max_value            8                       # Number of insts issued each cycle
system.cpu.iq.issued_per_cycle::total         3852388                       # Number of insts issued each cycle
system.cpu.iq.rate                           0.294869                       # Inst issue rate
system.cpu.iq.vec_alu_accesses                      0                       # Number of vector alu accesses
system.cpu.iq.vec_inst_queue_reads                  0                       # Number of vector instruction queue reads
system.cpu.iq.vec_inst_queue_wakeup_accesses            0                       # Number of vector instruction queue wakeup accesses
system.cpu.iq.vec_inst_queue_writes                 0                       # Number of vector instruction queue writes
system.cpu.memDep0.conflictingLoads                29                       # Number of conflicting loads.
system.cpu.memDep0.conflictingStores               14                       # Number of conflicting stores.
system.cpu.memDep0.insertedLoads                68969                       # Number of loads inserted to the mem dependence unit.
system.cpu.memDep0.insertedStores                2608                       # Number of stores inserted to the mem dependence unit.
system.cpu.misc_regfile_reads                  208159                       # number of misc regfile reads
system.cpu.numCycles                          3873590                       # number of cpu cycles simulated
system.cpu.numWorkItemsCompleted                    0                       # number of work items this cpu completed
system.cpu.numWorkItemsStarted                      0                       # number of work items this cpu started
system.cpu.timesIdled                             309                       # Number of times that the entire CPU went into an idle state and unscheduled itself
system.cpu.workload.numSyscalls                    10                       # Number of system calls
system.l2bus.snoop_filter.hit_multi_requests            2                       # Number of requests hitting in the snoop filter with multiple (>1) holders of the requested data.
system.l2bus.snoop_filter.hit_multi_snoops            0                       # Number of snoops hitting in the snoop filter with multiple (>1) holders of the requested data.
system.l2bus.snoop_filter.hit_single_requests        61888                       # Number of requests hitting in the snoop filter with a single holder of the requested data.
system.l2bus.snoop_filter.hit_single_snoops          238                       # Number of snoops hitting in the snoop filter with a single holder of the requested data.
system.l2bus.snoop_filter.tot_requests         125035                       # Total number of requests made to the snoop filter.
system.l2bus.snoop_filter.tot_snoops              238                       # Total number of snoops made to the snoop filter.
system.membus.snoop_filter.hit_multi_requests            0                       # Number of requests hitting in the snoop filter with multiple (>1) holders of the requested data.
system.membus.snoop_filter.hit_multi_snoops            0                       # Number of snoops hitting in the snoop filter with multiple (>1) holders of the requested data.
system.membus.snoop_filter.hit_single_requests          527                       # Number of requests hitting in the snoop filter with a single holder of the requested data.
system.membus.snoop_filter.hit_single_snoops            0                       # Number of snoops hitting in the snoop filter with a single holder of the requested data.
system.membus.snoop_filter.tot_requests         17643                       # Total number of requests made to the snoop filter.
system.membus.snoop_filter.tot_snoops               0                       # Total number of snoops made to the snoop filter.
system.clk_domain.clock                          1000                       # Clock period in ticks
system.clk_domain.voltage_domain.voltage            1                       # Voltage in Volts
system.cpu.branchPred.lookups                   69958                       # Number of BP lookups
system.cpu.branchPred.condPredicted             68786                       # Number of conditional branches predicted
system.cpu.branchPred.condIncorrect               720                       # Number of conditional branches incorrect
system.cpu.branchPred.BTBLookups                67597                       # Number of BTB lookups
system.cpu.branchPred.BTBHits                   66873                       # Number of BTB hits
system.cpu.branchPred.BTBHitPct             98.928947                       # BTB Hit Percentage
system.cpu.branchPred.RASUsed                     294                       # Number of times the RAS was used to get a target.
system.cpu.branchPred.RASIncorrect                  3                       # Number of incorrect RAS predictions.
system.cpu.branchPred.indirectLookups             288                       # Number of indirect predictor lookups.
system.cpu.branchPred.indirectHits                 10                       # Number of indirect target hits.
system.cpu.branchPred.indirectMisses              278                       # Number of indirect misses.
system.cpu.branchPred.indirectMispredicted           84                       # Number of mispredicted indirect branches.
system.cpu.commit.commitSquashedInsts           13943                       # The number of squashed insts skipped by commit
system.cpu.commit.branchMispredicts               592                       # The number of times a branch was mispredicted
system.cpu.commit.numCommittedDist::samples      3850147                       # Number of insts commited each cycle
system.cpu.commit.numCommittedDist::mean     0.293910                       # Number of insts commited each cycle
system.cpu.commit.numCommittedDist::stdev     0.773935                       # Number of insts commited each cycle
system.cpu.commit.numCommittedDist::underflows            0      0.00%      0.00% # Number of insts commited each cycle
system.cpu.commit.numCommittedDist::0         3189215     82.83%     82.83% # Number of insts commited each cycle
system.cpu.commit.numCommittedDist::1          395001     10.26%     93.09% # Number of insts commited each cycle
system.cpu.commit.numCommittedDist::2          131950      3.43%     96.52% # Number of insts commited each cycle
system.cpu.commit.numCommittedDist::3           66612      1.73%     98.25% # Number of insts commited each cycle
system.cpu.commit.numCommittedDist::4           66180      1.72%     99.97% # Number of insts commited each cycle
system.cpu.commit.numCommittedDist::5             270      0.01%     99.98% # Number of insts commited each cycle
system.cpu.commit.numCommittedDist::6             197      0.01%     99.98% # Number of insts commited each cycle
system.cpu.commit.numCommittedDist::7             167      0.00%     99.99% # Number of insts commited each cycle
system.cpu.commit.numCommittedDist::8             555      0.01%    100.00% # Number of insts commited each cycle
system.cpu.commit.numCommittedDist::overflows            0      0.00%    100.00% # Number of insts commited each cycle
system.cpu.commit.numCommittedDist::min_value            0                       # Number of insts commited each cycle
system.cpu.commit.numCommittedDist::max_value            8                       # Number of insts commited each cycle
system.cpu.commit.numCommittedDist::total      3850147                       # Number of insts commited each cycle
system.cpu.commit.instsCommitted               729871                       # Number of instructions committed
system.cpu.commit.opsCommitted                1131598                       # Number of ops (including micro ops) committed
system.cpu.commit.memRefs                       68827                       # Number of memory references committed
system.cpu.commit.loads                         67200                       # Number of loads committed
system.cpu.commit.amos                              0                       # Number of atomic instructions committed
system.cpu.commit.membars                           0                       # Number of memory barriers committed
system.cpu.commit.branches                      67416                       # Number of branches committed
system.cpu.commit.vector                            0                       # Number of committed Vector instructions.
system.cpu.commit.floating                       1267                       # Number of committed floating point instructions.
system.cpu.commit.integer                     1130784                       # Number of committed integer instructions.
system.cpu.commit.functionCalls                   147                       # Number of function calls committed.
system.cpu.commit.committedInstType_0::No_OpClass          286      0.03%      0.03% # Class of committed instruction
system.cpu.commit.committedInstType_0::IntAlu      1061895     93.84%     93.87% # Class of committed instruction
system.cpu.commit.committedInstType_0::IntMult            5      0.00%     93.87% # Class of committed instruction
system.cpu.commit.committedInstType_0::IntDiv           21      0.00%     93.87% # Class of committed instruction
system.cpu.commit.committedInstType_0::FloatAdd          135      0.01%     93.88% # Class of committed instruction
system.cpu.commit.committedInstType_0::FloatCmp            0      0.00%     93.88% # Class of committed instruction
system.cpu.commit.committedInstType_0::FloatCvt            0      0.00%     93.88% # Class of committed instruction
system.cpu.commit.committedInstType_0::FloatMult            0      0.00%     93.88% # Class of committed instruction
system.cpu.commit.committedInstType_0::FloatMultAcc            0      0.00%     93.88% # Class of committed instruction
system.cpu.commit.committedInstType_0::FloatDiv            0      0.00%     93.88% # Class of committed instruction
system.cpu.commit.committedInstType_0::FloatMisc            0      0.00%     93.88% # Class of committed instruction
system.cpu.commit.committedInstType_0::FloatSqrt            0      0.00%     93.88% # Class of committed instruction
system.cpu.commit.committedInstType_0::SimdAdd            0      0.00%     93.88% # Class of committed instruction
system.cpu.commit.committedInstType_0::SimdAddAcc            0      0.00%     93.88% # Class of committed instruction
system.cpu.commit.committedInstType_0::SimdAlu          100      0.01%     93.89% # Class of committed instruction
system.cpu.commit.committedInstType_0::SimdCmp           12      0.00%     93.89% # Class of committed instruction
system.cpu.commit.committedInstType_0::SimdCvt           74      0.01%     93.90% # Class of committed instruction
system.cpu.commit.committedInstType_0::SimdMisc          243      0.02%     93.92% # Class of committed instruction
system.cpu.commit.committedInstType_0::SimdMult            0      0.00%     93.92% # Class of committed instruction
system.cpu.commit.committedInstType_0::SimdMultAcc            0      0.00%     93.92% # Class of committed instruction
system.cpu.commit.committedInstType_0::SimdShift            0      0.00%     93.92% # Class of committed instruction
system.cpu.commit.committedInstType_0::SimdShiftAcc            0      0.00%     93.92% # Class of committed instruction
system.cpu.commit.committedInstType_0::SimdDiv            0      0.00%     93.92% # Class of committed instruction
system.cpu.commit.committedInstType_0::SimdSqrt            0      0.00%     93.92% # Class of committed instruction
system.cpu.commit.committedInstType_0::SimdFloatAdd            0      0.00%     93.92% # Class of committed instruction
system.cpu.commit.committedInstType_0::SimdFloatAlu            0      0.00%     93.92% # Class of committed instruction
system.cpu.commit.committedInstType_0::SimdFloatCmp            0      0.00%     93.92% # Class of committed instruction
system.cpu.commit.committedInstType_0::SimdFloatCvt            0      0.00%     93.92% # Class of committed instruction
system.cpu.commit.committedInstType_0::SimdFloatDiv            0      0.00%     93.92% # Class of committed instruction
system.cpu.commit.committedInstType_0::SimdFloatMisc            0      0.00%     93.92% # Class of committed instruction
system.cpu.commit.committedInstType_0::SimdFloatMult            0      0.00%     93.92% # Class of committed instruction
system.cpu.commit.committedInstType_0::SimdFloatMultAcc            0      0.00%     93.92% # Class of committed instruction
system.cpu.commit.committedInstType_0::SimdFloatSqrt            0      0.00%     93.92% # Class of committed instruction
system.cpu.commit.committedInstType_0::SimdReduceAdd            0      0.00%     93.92% # Class of committed instruction
system.cpu.commit.committedInstType_0::SimdReduceAlu            0      0.00%     93.92% # Class of committed instruction
system.cpu.commit.committedInstType_0::SimdReduceCmp            0      0.00%     93.92% # Class of committed instruction
system.cpu.commit.committedInstType_0::SimdFloatReduceAdd            0      0.00%     93.92% # Class of committed instruction
system.cpu.commit.committedInstType_0::SimdFloatReduceCmp            0      0.00%     93.92% # Class of committed instruction
system.cpu.commit.committedInstType_0::SimdAes            0      0.00%     93.92% # Class of committed instruction
system.cpu.commit.committedInstType_0::SimdAesMix            0      0.00%     93.92% # Class of committed instruction
system.cpu.commit.committedInstType_0::SimdSha1Hash            0      0.00%     93.92% # Class of committed instruction
system.cpu.commit.committedInstType_0::SimdSha1Hash2            0      0.00%     93.92% # Class of committed instruction
system.cpu.commit.committedInstType_0::SimdSha256Hash            0      0.00%     93.92% # Class of committed instruction
system.cpu.commit.committedInstType_0::SimdSha256Hash2            0      0.00%     93.92% # Class of committed instruction
system.cpu.commit.committedInstType_0::SimdShaSigma2            0      0.00%     93.92% # Class of committed instruction
system.cpu.commit.committedInstType_0::SimdShaSigma3            0      0.00%     93.92% # Class of committed instruction
system.cpu.commit.committedInstType_0::SimdPredAlu            0      0.00%     93.92% # Class of committed instruction
system.cpu.commit.committedInstType_0::MemRead        67122      5.93%     99.85% # Class of committed instruction
system.cpu.commit.committedInstType_0::MemWrite         1161      0.10%     99.95% # Class of committed instruction
system.cpu.commit.committedInstType_0::FloatMemRead           78      0.01%     99.96% # Class of committed instruction
system.cpu.commit.committedInstType_0::FloatMemWrite          466      0.04%    100.00% # Class of committed instruction
system.cpu.commit.committedInstType_0::IprAccess            0      0.00%    100.00% # Class of committed instruction
system.cpu.commit.committedInstType_0::InstPrefetch            0      0.00%    100.00% # Class of committed instruction
system.cpu.commit.committedInstType_0::total      1131598                       # Class of committed instruction
system.cpu.commit.commitEligibleSamples           555                       # number cycles where commit BW limit reached
system.cpu.dcache.demand_hits::.cpu.data         6946                       # number of demand (read+write) hits
system.cpu.dcache.demand_hits::total             6946                       # number of demand (read+write) hits
system.cpu.dcache.overall_hits::.cpu.data         6946                       # number of overall hits
system.cpu.dcache.overall_hits::total            6946                       # number of overall hits
system.cpu.dcache.demand_misses::.cpu.data        62879                       # number of demand (read+write) misses
system.cpu.dcache.demand_misses::total          62879                       # number of demand (read+write) misses
system.cpu.dcache.overall_misses::.cpu.data        62879                       # number of overall misses
system.cpu.dcache.overall_misses::total         62879                       # number of overall misses
system.cpu.dcache.demand_miss_latency::.cpu.data   3205951999                       # number of demand (read+write) miss cycles
system.cpu.dcache.demand_miss_latency::total   3205951999                       # number of demand (read+write) miss cycles
system.cpu.dcache.overall_miss_latency::.cpu.data   3205951999                       # number of overall miss cycles
system.cpu.dcache.overall_miss_latency::total   3205951999                       # number of overall miss cycles
system.cpu.dcache.demand_accesses::.cpu.data        69825                       # number of demand (read+write) accesses
system.cpu.dcache.demand_accesses::total        69825                       # number of demand (read+write) accesses
system.cpu.dcache.overall_accesses::.cpu.data        69825                       # number of overall (read+write) accesses
system.cpu.dcache.overall_accesses::total        69825                       # number of overall (read+write) accesses
system.cpu.dcache.demand_miss_rate::.cpu.data     0.900523                       # miss rate for demand accesses
system.cpu.dcache.demand_miss_rate::total     0.900523                       # miss rate for demand accesses
system.cpu.dcache.overall_miss_rate::.cpu.data     0.900523                       # miss rate for overall accesses
system.cpu.dcache.overall_miss_rate::total     0.900523                       # miss rate for overall accesses
system.cpu.dcache.demand_avg_miss_latency::.cpu.data 50986.052561                       # average overall miss latency
system.cpu.dcache.demand_avg_miss_latency::total 50986.052561                       # average overall miss latency
system.cpu.dcache.overall_avg_miss_latency::.cpu.data 50986.052561                       # average overall miss latency
system.cpu.dcache.overall_avg_miss_latency::total 50986.052561                       # average overall miss latency
system.cpu.dcache.blocked_cycles::no_mshrs          992                       # number of cycles access was blocked
system.cpu.dcache.blocked_cycles::no_targets            0                       # number of cycles access was blocked
system.cpu.dcache.blocked::no_mshrs                31                       # number of cycles access was blocked
system.cpu.dcache.blocked::no_targets               0                       # number of cycles access was blocked
system.cpu.dcache.avg_blocked_cycles::no_mshrs           32                       # average number of cycles each access was blocked
system.cpu.dcache.avg_blocked_cycles::no_targets          nan                       # average number of cycles each access was blocked
system.cpu.dcache.writebacks::.writebacks          143                       # number of writebacks
system.cpu.dcache.writebacks::total               143                       # number of writebacks
system.cpu.dcache.demand_mshr_hits::.cpu.data          219                       # number of demand (read+write) MSHR hits
system.cpu.dcache.demand_mshr_hits::total          219                       # number of demand (read+write) MSHR hits
system.cpu.dcache.overall_mshr_hits::.cpu.data          219                       # number of overall MSHR hits
system.cpu.dcache.overall_mshr_hits::total          219                       # number of overall MSHR hits
system.cpu.dcache.demand_mshr_misses::.cpu.data        62660                       # number of demand (read+write) MSHR misses
system.cpu.dcache.demand_mshr_misses::total        62660                       # number of demand (read+write) MSHR misses
system.cpu.dcache.overall_mshr_misses::.cpu.data        62660                       # number of overall MSHR misses
system.cpu.dcache.overall_mshr_misses::total        62660                       # number of overall MSHR misses
system.cpu.dcache.demand_mshr_miss_latency::.cpu.data   3064116999                       # number of demand (read+write) MSHR miss cycles
system.cpu.dcache.demand_mshr_miss_latency::total   3064116999                       # number of demand (read+write) MSHR miss cycles
system.cpu.dcache.overall_mshr_miss_latency::.cpu.data   3064116999                       # number of overall MSHR miss cycles
system.cpu.dcache.overall_mshr_miss_latency::total   3064116999                       # number of overall MSHR miss cycles
system.cpu.dcache.demand_mshr_miss_rate::.cpu.data     0.897386                       # mshr miss rate for demand accesses
system.cpu.dcache.demand_mshr_miss_rate::total     0.897386                       # mshr miss rate for demand accesses
system.cpu.dcache.overall_mshr_miss_rate::.cpu.data     0.897386                       # mshr miss rate for overall accesses
system.cpu.dcache.overall_mshr_miss_rate::total     0.897386                       # mshr miss rate for overall accesses
system.cpu.dcache.demand_avg_mshr_miss_latency::.cpu.data 48900.686227                       # average overall mshr miss latency
system.cpu.dcache.demand_avg_mshr_miss_latency::total 48900.686227                       # average overall mshr miss latency
system.cpu.dcache.overall_avg_mshr_miss_latency::.cpu.data 48900.686227                       # average overall mshr miss latency
system.cpu.dcache.overall_avg_mshr_miss_latency::total 48900.686227                       # average overall mshr miss latency
system.cpu.dcache.replacements                  61635                       # number of replacements
system.cpu.dcache.ReadReq_hits::.cpu.data         5442                       # number of ReadReq hits
system.cpu.dcache.ReadReq_hits::total            5442                       # number of ReadReq hits
system.cpu.dcache.ReadReq_misses::.cpu.data        62755                       # number of ReadReq misses
system.cpu.dcache.ReadReq_misses::total         62755                       # number of ReadReq misses
system.cpu.dcache.ReadReq_miss_latency::.cpu.data   3193217000                       # number of ReadReq miss cycles
system.cpu.dcache.ReadReq_miss_latency::total   3193217000                       # number of ReadReq miss cycles
system.cpu.dcache.ReadReq_accesses::.cpu.data        68197                       # number of ReadReq accesses(hits+misses)
system.cpu.dcache.ReadReq_accesses::total        68197                       # number of ReadReq accesses(hits+misses)
system.cpu.dcache.ReadReq_miss_rate::.cpu.data     0.920202                       # miss rate for ReadReq accesses
system.cpu.dcache.ReadReq_miss_rate::total     0.920202                       # miss rate for ReadReq accesses
system.cpu.dcache.ReadReq_avg_miss_latency::.cpu.data 50883.865827                       # average ReadReq miss latency
system.cpu.dcache.ReadReq_avg_miss_latency::total 50883.865827                       # average ReadReq miss latency
system.cpu.dcache.ReadReq_mshr_hits::.cpu.data          217                       # number of ReadReq MSHR hits
system.cpu.dcache.ReadReq_mshr_hits::total          217                       # number of ReadReq MSHR hits
system.cpu.dcache.ReadReq_mshr_misses::.cpu.data        62538                       # number of ReadReq MSHR misses
system.cpu.dcache.ReadReq_mshr_misses::total        62538                       # number of ReadReq MSHR misses
system.cpu.dcache.ReadReq_mshr_miss_latency::.cpu.data   3051645000                       # number of ReadReq MSHR miss cycles
system.cpu.dcache.ReadReq_mshr_miss_latency::total   3051645000                       # number of ReadReq MSHR miss cycles
system.cpu.dcache.ReadReq_mshr_miss_rate::.cpu.data     0.917020                       # mshr miss rate for ReadReq accesses
system.cpu.dcache.ReadReq_mshr_miss_rate::total     0.917020                       # mshr miss rate for ReadReq accesses
system.cpu.dcache.ReadReq_avg_mshr_miss_latency::.cpu.data 48796.651636                       # average ReadReq mshr miss latency
system.cpu.dcache.ReadReq_avg_mshr_miss_latency::total 48796.651636                       # average ReadReq mshr miss latency
system.cpu.dcache.WriteReq_hits::.cpu.data         1504                       # number of WriteReq hits
system.cpu.dcache.WriteReq_hits::total           1504                       # number of WriteReq hits
system.cpu.dcache.WriteReq_misses::.cpu.data          124                       # number of WriteReq misses
system.cpu.dcache.WriteReq_misses::total          124                       # number of WriteReq misses
system.cpu.dcache.WriteReq_miss_latency::.cpu.data     12734999                       # number of WriteReq miss cycles
system.cpu.dcache.WriteReq_miss_latency::total     12734999                       # number of WriteReq miss cycles
system.cpu.dcache.WriteReq_accesses::.cpu.data         1628                       # number of WriteReq accesses(hits+misses)
system.cpu.dcache.WriteReq_accesses::total         1628                       # number of WriteReq accesses(hits+misses)
system.cpu.dcache.WriteReq_miss_rate::.cpu.data     0.076167                       # miss rate for WriteReq accesses
system.cpu.dcache.WriteReq_miss_rate::total     0.076167                       # miss rate for WriteReq accesses
system.cpu.dcache.WriteReq_avg_miss_latency::.cpu.data 102701.604839                       # average WriteReq miss latency
system.cpu.dcache.WriteReq_avg_miss_latency::total 102701.604839                       # average WriteReq miss latency
system.cpu.dcache.WriteReq_mshr_hits::.cpu.data            2                       # number of WriteReq MSHR hits
system.cpu.dcache.WriteReq_mshr_hits::total            2                       # number of WriteReq MSHR hits
system.cpu.dcache.WriteReq_mshr_misses::.cpu.data          122                       # number of WriteReq MSHR misses
system.cpu.dcache.WriteReq_mshr_misses::total          122                       # number of WriteReq MSHR misses
system.cpu.dcache.WriteReq_mshr_miss_latency::.cpu.data     12471999                       # number of WriteReq MSHR miss cycles
system.cpu.dcache.WriteReq_mshr_miss_latency::total     12471999                       # number of WriteReq MSHR miss cycles
system.cpu.dcache.WriteReq_mshr_miss_rate::.cpu.data     0.074939                       # mshr miss rate for WriteReq accesses
system.cpu.dcache.WriteReq_mshr_miss_rate::total     0.074939                       # mshr miss rate for WriteReq accesses
system.cpu.dcache.WriteReq_avg_mshr_miss_latency::.cpu.data 102229.500000                       # average WriteReq mshr miss latency
system.cpu.dcache.WriteReq_avg_mshr_miss_latency::total 102229.500000                       # average WriteReq mshr miss latency
system.cpu.dcache.power_state.pwrStateResidencyTicks::UNDEFINED   3873589000                       # Cumulative time (in ticks) in various power states
system.cpu.dcache.tags.tagsinuse           994.263997                       # Cycle average of tags in use
system.cpu.dcache.tags.total_refs               69607                       # Total number of references to valid blocks.
system.cpu.dcache.tags.sampled_refs             62659                       # Sample count of references to valid blocks.
system.cpu.dcache.tags.avg_refs              1.110886                       # Average number of references to valid blocks.
system.cpu.dcache.tags.warmup_cycle            222000                       # Cycle when the warmup percentage was hit.
system.cpu.dcache.tags.occ_blocks::.cpu.data   994.263997                       # Average occupied blocks per requestor
system.cpu.dcache.tags.occ_percent::.cpu.data     0.970961                       # Average percentage of cache occupancy
system.cpu.dcache.tags.occ_percent::total     0.970961                       # Average percentage of cache occupancy
system.cpu.dcache.tags.occ_task_id_blocks::1024         1024                       # Occupied blocks per task id
system.cpu.dcache.tags.age_task_id_blocks_1024::0          203                       # Occupied blocks per task id
system.cpu.dcache.tags.age_task_id_blocks_1024::1          797                       # Occupied blocks per task id
system.cpu.dcache.tags.age_task_id_blocks_1024::2           24                       # Occupied blocks per task id
system.cpu.dcache.tags.occ_task_id_percent::1024            1                       # Percentage of cache occupancy per task id
system.cpu.dcache.tags.tag_accesses            202309                       # Number of tag accesses
system.cpu.dcache.tags.data_accesses           202309                       # Number of data accesses
system.cpu.dcache.tags.power_state.pwrStateResidencyTicks::UNDEFINED   3873589000                       # Cumulative time (in ticks) in various power states
system.cpu.decode.idleCycles                    72712                       # Number of cycles decode is idle
system.cpu.decode.blockedCycles               3634173                       # Number of cycles decode is blocked
system.cpu.decode.runCycles                      5131                       # Number of cycles decode is running
system.cpu.decode.unblockCycles                139753                       # Number of cycles decode is unblocking
system.cpu.decode.squashCycles                    619                       # Number of cycles decode is squashing
system.cpu.decode.branchResolved                67001                       # Number of times decode resolved a  branch
system.cpu.decode.branchMispred                   232                       # Number of times decode detected a branch misprediction
system.cpu.decode.decodedInsts                1149601                       # Number of instructions handled by decode
system.cpu.decode.squashedInsts                  1111                       # Number of squashed instructions handled by decode
system.cpu.dtb.rdAccesses                       68489                       # TLB accesses on read requests
system.cpu.dtb.wrAccesses                        2148                       # TLB accesses on write requests
system.cpu.dtb.rdMisses                         49673                       # TLB misses on read requests
system.cpu.dtb.wrMisses                            25                       # TLB misses on write requests
system.cpu.dtb.walker.power_state.pwrStateResidencyTicks::UNDEFINED   3873589000                       # Cumulative time (in ticks) in various power states
system.cpu.fetch.icacheStallCycles              16308                       # Number of cycles fetch is stalled on an Icache miss
system.cpu.fetch.insts                         741448                       # Number of instructions fetch has processed
system.cpu.fetch.branches                       69958                       # Number of branches that fetch encountered
system.cpu.fetch.predictedBranches              67177                       # Number of branches that fetch has predicted taken
system.cpu.fetch.cycles                       3834505                       # Number of cycles fetch has run and was not squashing or blocked
system.cpu.fetch.squashCycles                    1684                       # Number of cycles fetch has spent squashing
system.cpu.fetch.miscStallCycles                  107                       # Number of cycles fetch has spent waiting on interrupts,or bad addresses, or out of MSHRs
system.cpu.fetch.pendingTrapStallCycles           611                       # Number of stall cycles due to pending traps
system.cpu.fetch.pendingQuiesceStallCycles            4                       # Number of stall cycles due to pending quiesce instructions
system.cpu.fetch.icacheWaitRetryStallCycles           11                       # Number of stall cycles due to full MSHR
system.cpu.fetch.cacheLines                      3187                       # Number of cache lines fetched
system.cpu.fetch.icacheSquashes                   377                       # Number of outstanding Icache misses that were squashed
system.cpu.fetch.nisnDist::samples            3852388                       # Number of instructions fetched each cycle (Total)
system.cpu.fetch.nisnDist::mean              0.299504                       # Number of instructions fetched each cycle (Total)
system.cpu.fetch.nisnDist::stdev             1.392903                       # Number of instructions fetched each cycle (Total)
system.cpu.fetch.nisnDist::underflows               0      0.00%      0.00% # Number of instructions fetched each cycle (Total)
system.cpu.fetch.nisnDist::0                  3649461     94.73%     94.73% # Number of instructions fetched each cycle (Total)
system.cpu.fetch.nisnDist::1                    16702      0.43%     95.17% # Number of instructions fetched each cycle (Total)
system.cpu.fetch.nisnDist::2                    16657      0.43%     95.60% # Number of instructions fetched each cycle (Total)
system.cpu.fetch.nisnDist::3                    16907      0.44%     96.04% # Number of instructions fetched each cycle (Total)
system.cpu.fetch.nisnDist::4                    16967      0.44%     96.48% # Number of instructions fetched each cycle (Total)
system.cpu.fetch.nisnDist::5                    16702      0.43%     96.91% # Number of instructions fetched each cycle (Total)
system.cpu.fetch.nisnDist::6                    16794      0.44%     97.35% # Number of instructions fetched each cycle (Total)
system.cpu.fetch.nisnDist::7                    16659      0.43%     97.78% # Number of instructions fetched each cycle (Total)
system.cpu.fetch.nisnDist::8                    85539      2.22%    100.00% # Number of instructions fetched each cycle (Total)
system.cpu.fetch.nisnDist::overflows                0      0.00%    100.00% # Number of instructions fetched each cycle (Total)
system.cpu.fetch.nisnDist::min_value                0                       # Number of instructions fetched each cycle (Total)
system.cpu.fetch.nisnDist::max_value                8                       # Number of instructions fetched each cycle (Total)
system.cpu.fetch.nisnDist::total              3852388                       # Number of instructions fetched each cycle (Total)
system.cpu.fetch.branchRate                  0.018060                       # Number of branch fetches per cycle
system.cpu.fetch.rate                        0.191411                       # Number of inst fetches per cycle
system.cpu.icache.demand_hits::.cpu.inst         2551                       # number of demand (read+write) hits
system.cpu.icache.demand_hits::total             2551                       # number of demand (read+write) hits
system.cpu.icache.overall_hits::.cpu.inst         2551                       # number of overall hits
system.cpu.icache.overall_hits::total            2551                       # number of overall hits
system.cpu.icache.demand_misses::.cpu.inst          636                       # number of demand (read+write) misses
system.cpu.icache.demand_misses::total            636                       # number of demand (read+write) misses
system.cpu.icache.overall_misses::.cpu.inst          636                       # number of overall misses
system.cpu.icache.overall_misses::total           636                       # number of overall misses
system.cpu.icache.demand_miss_latency::.cpu.inst     58873000                       # number of demand (read+write) miss cycles
system.cpu.icache.demand_miss_latency::total     58873000                       # number of demand (read+write) miss cycles
system.cpu.icache.overall_miss_latency::.cpu.inst     58873000                       # number of overall miss cycles
system.cpu.icache.overall_miss_latency::total     58873000                       # number of overall miss cycles
system.cpu.icache.demand_accesses::.cpu.inst         3187                       # number of demand (read+write) accesses
system.cpu.icache.demand_accesses::total         3187                       # number of demand (read+write) accesses
system.cpu.icache.overall_accesses::.cpu.inst         3187                       # number of overall (read+write) accesses
system.cpu.icache.overall_accesses::total         3187                       # number of overall (read+write) accesses
system.cpu.icache.demand_miss_rate::.cpu.inst     0.199561                       # miss rate for demand accesses
system.cpu.icache.demand_miss_rate::total     0.199561                       # miss rate for demand accesses
system.cpu.icache.overall_miss_rate::.cpu.inst     0.199561                       # miss rate for overall accesses
system.cpu.icache.overall_miss_rate::total     0.199561                       # miss rate for overall accesses
system.cpu.icache.demand_avg_miss_latency::.cpu.inst 92567.610063                       # average overall miss latency
system.cpu.icache.demand_avg_miss_latency::total 92567.610063                       # average overall miss latency
system.cpu.icache.overall_avg_miss_latency::.cpu.inst 92567.610063                       # average overall miss latency
system.cpu.icache.overall_avg_miss_latency::total 92567.610063                       # average overall miss latency
system.cpu.icache.blocked_cycles::no_mshrs          190                       # number of cycles access was blocked
system.cpu.icache.blocked_cycles::no_targets            0                       # number of cycles access was blocked
system.cpu.icache.blocked::no_mshrs                 3                       # number of cycles access was blocked
system.cpu.icache.blocked::no_targets               0                       # number of cycles access was blocked
system.cpu.icache.avg_blocked_cycles::no_mshrs    63.333333                       # average number of cycles each access was blocked
system.cpu.icache.avg_blocked_cycles::no_targets          nan                       # average number of cycles each access was blocked
system.cpu.icache.demand_mshr_hits::.cpu.inst          147                       # number of demand (read+write) MSHR hits
system.cpu.icache.demand_mshr_hits::total          147                       # number of demand (read+write) MSHR hits
system.cpu.icache.overall_mshr_hits::.cpu.inst          147                       # number of overall MSHR hits
system.cpu.icache.overall_mshr_hits::total          147                       # number of overall MSHR hits
system.cpu.icache.demand_mshr_misses::.cpu.inst          489                       # number of demand (read+write) MSHR misses
system.cpu.icache.demand_mshr_misses::total          489                       # number of demand (read+write) MSHR misses
system.cpu.icache.overall_mshr_misses::.cpu.inst          489                       # number of overall MSHR misses
system.cpu.icache.overall_mshr_misses::total          489                       # number of overall MSHR misses
system.cpu.icache.demand_mshr_miss_latency::.cpu.inst     48030000                       # number of demand (read+write) MSHR miss cycles
system.cpu.icache.demand_mshr_miss_latency::total     48030000                       # number of demand (read+write) MSHR miss cycles
system.cpu.icache.overall_mshr_miss_latency::.cpu.inst     48030000                       # number of overall MSHR miss cycles
system.cpu.icache.overall_mshr_miss_latency::total     48030000                       # number of overall MSHR miss cycles
system.cpu.icache.demand_mshr_miss_rate::.cpu.inst     0.153436                       # mshr miss rate for demand accesses
system.cpu.icache.demand_mshr_miss_rate::total     0.153436                       # mshr miss rate for demand accesses
system.cpu.icache.overall_mshr_miss_rate::.cpu.inst     0.153436                       # mshr miss rate for overall accesses
system.cpu.icache.overall_mshr_miss_rate::total     0.153436                       # mshr miss rate for overall accesses
system.cpu.icache.demand_avg_mshr_miss_latency::.cpu.inst 98220.858896                       # average overall mshr miss latency
system.cpu.icache.demand_avg_mshr_miss_latency::total 98220.858896                       # average overall mshr miss latency
system.cpu.icache.overall_avg_mshr_miss_latency::.cpu.inst 98220.858896                       # average overall mshr miss latency
system.cpu.icache.overall_avg_mshr_miss_latency::total 98220.858896                       # average overall mshr miss latency
system.cpu.icache.replacements                    251                       # number of replacements
system.cpu.icache.ReadReq_hits::.cpu.inst         2551                       # number of ReadReq hits
system.cpu.icache.ReadReq_hits::total            2551                       # number of ReadReq hits
system.cpu.icache.ReadReq_misses::.cpu.inst          636                       # number of ReadReq misses
system.cpu.icache.ReadReq_misses::total           636                       # number of ReadReq misses
system.cpu.icache.ReadReq_miss_latency::.cpu.inst     58873000                       # number of ReadReq miss cycles
system.cpu.icache.ReadReq_miss_latency::total     58873000                       # number of ReadReq miss cycles
system.cpu.icache.ReadReq_accesses::.cpu.inst         3187                       # number of ReadReq accesses(hits+misses)
system.cpu.icache.ReadReq_accesses::total         3187                       # number of ReadReq accesses(hits+misses)
system.cpu.icache.ReadReq_miss_rate::.cpu.inst     0.199561                       # miss rate for ReadReq accesses
system.cpu.icache.ReadReq_miss_rate::total     0.199561                       # miss rate for ReadReq accesses
system.cpu.icache.ReadReq_avg_miss_latency::.cpu.inst 92567.610063                       # average ReadReq miss latency
system.cpu.icache.ReadReq_avg_miss_latency::total 92567.610063                       # average ReadReq miss latency
system.cpu.icache.ReadReq_mshr_hits::.cpu.inst          147                       # number of ReadReq MSHR hits
system.cpu.icache.ReadReq_mshr_hits::total          147                       # number of ReadReq MSHR hits
system.cpu.icache.ReadReq_mshr_misses::.cpu.inst          489                       # number of ReadReq MSHR misses
system.cpu.icache.ReadReq_mshr_misses::total          489                       # number of ReadReq MSHR misses
system.cpu.icache.ReadReq_mshr_miss_latency::.cpu.inst     48030000                       # number of ReadReq MSHR miss cycles
system.cpu.icache.ReadReq_mshr_miss_latency::total     48030000                       # number of ReadReq MSHR miss cycles
system.cpu.icache.ReadReq_mshr_miss_rate::.cpu.inst     0.153436                       # mshr miss rate for ReadReq accesses
system.cpu.icache.ReadReq_mshr_miss_rate::total     0.153436                       # mshr miss rate for ReadReq accesses
system.cpu.icache.ReadReq_avg_mshr_miss_latency::.cpu.inst 98220.858896                       # average ReadReq mshr miss latency
system.cpu.icache.ReadReq_avg_mshr_miss_latency::total 98220.858896                       # average ReadReq mshr miss latency
system.cpu.icache.power_state.pwrStateResidencyTicks::UNDEFINED   3873589000                       # Cumulative time (in ticks) in various power states
system.cpu.icache.tags.tagsinuse           236.847446                       # Cycle average of tags in use
system.cpu.icache.tags.total_refs                3040                       # Total number of references to valid blocks.
system.cpu.icache.tags.sampled_refs               489                       # Sample count of references to valid blocks.
system.cpu.icache.tags.avg_refs              6.216769                       # Average number of references to valid blocks.
system.cpu.icache.tags.warmup_cycle            107000                       # Cycle when the warmup percentage was hit.
system.cpu.icache.tags.occ_blocks::.cpu.inst   236.847446                       # Average occupied blocks per requestor
system.cpu.icache.tags.occ_percent::.cpu.inst     0.925185                       # Average percentage of cache occupancy
system.cpu.icache.tags.occ_percent::total     0.925185                       # Average percentage of cache occupancy
system.cpu.icache.tags.occ_task_id_blocks::1024          237                       # Occupied blocks per task id
system.cpu.icache.tags.age_task_id_blocks_1024::0           32                       # Occupied blocks per task id
system.cpu.icache.tags.age_task_id_blocks_1024::3          205                       # Occupied blocks per task id
system.cpu.icache.tags.occ_task_id_percent::1024     0.925781                       # Percentage of cache occupancy per task id
system.cpu.icache.tags.tag_accesses              6863                       # Number of tag accesses
system.cpu.icache.tags.data_accesses             6863                       # Number of data accesses
system.cpu.icache.tags.power_state.pwrStateResidencyTicks::UNDEFINED   3873589000                       # Cumulative time (in ticks) in various power states
system.cpu.interrupts.clk_domain.clock          16000                       # Clock period in ticks
system.cpu.itb.rdAccesses                           0                       # TLB accesses on read requests
system.cpu.itb.wrAccesses                        3295                       # TLB accesses on write requests
system.cpu.itb.rdMisses                             0                       # TLB misses on read requests
system.cpu.itb.wrMisses                           152                       # TLB misses on write requests
system.cpu.itb.walker.power_state.pwrStateResidencyTicks::UNDEFINED   3873589000                       # Cumulative time (in ticks) in various power states
system.cpu.lsq0.forwLoads                         196                       # Number of loads that had data forwarded from stores
system.cpu.lsq0.squashedLoads                    1769                       # Number of loads squashed
system.cpu.lsq0.ignoredResponses                    5                       # Number of memory responses ignored because the instruction is squashed
system.cpu.lsq0.memOrderViolation                  17                       # Number of memory ordering violations
system.cpu.lsq0.squashedStores                    981                       # Number of stores squashed
system.cpu.lsq0.rescheduledLoads                    0                       # Number of loads that were rescheduled
system.cpu.lsq0.blockedByCache                     28                       # Number of times an access to memory failed due to the cache being blocked
system.cpu.power_state.pwrStateResidencyTicks::ON   3873589000                       # Cumulative time (in ticks) in various power states
system.cpu.rename.squashCycles                    619                       # Number of cycles rename is squashing
system.cpu.rename.idleCycles                    98507                       # Number of cycles rename is idle
system.cpu.rename.blockCycles                 3036487                       # Number of cycles rename is blocking
system.cpu.rename.serializeStallCycles            459                       # count of cycles rename stalledfor serializing inst
system.cpu.rename.runCycles                     95734                       # Number of cycles rename is running
system.cpu.rename.unblockCycles                620582                       # Number of cycles rename is unblocking
system.cpu.rename.renamedInsts                1148247                       # Number of instructions processed by rename
system.cpu.rename.ROBFullEvents                    52                       # Number of times rename has blocked due to ROB full
system.cpu.rename.IQFullEvents                 592228                       # Number of times rename has blocked due to IQ full
system.cpu.rename.SQFullEvents                   4671                       # Number of times rename has blocked due to SQ full
system.cpu.rename.renamedOperands             2134783                       # Number of destination operands rename has renamed
system.cpu.rename.lookups                     2639222                       # Number of register rename lookups that rename has made
system.cpu.rename.intLookups                  1752562                       # Number of integer rename lookups
system.cpu.rename.fpLookups                      1851                       # Number of floating rename lookups
system.cpu.rename.committedMaps               2116750                       # Number of HB maps that are committed
system.cpu.rename.undoneMaps                    18019                       # Number of HB maps that are undone due to squashing
system.cpu.rename.serializing                      13                       # count of serializing insts renamed
system.cpu.rename.tempSerializing                  15                       # count of temporary serializing insts renamed
system.cpu.rename.skidInsts                    834048                       # count of insts added to the skid buffer
system.cpu.rob.reads                          4994977                       # The number of ROB reads
system.cpu.rob.writes                         2293353                       # The number of ROB writes
system.cpu.thread_0.numInsts                   729871                       # Number of Instructions committed
system.cpu.thread_0.numOps                    1131598                       # Number of Ops committed
system.cpu.thread_0.numMemRefs                      0                       # Number of Memory References
system.l2bus.trans_dist::ReadResp               63027                       # Transaction distribution
system.l2bus.trans_dist::WritebackDirty           286                       # Transaction distribution
system.l2bus.trans_dist::CleanEvict             62332                       # Transaction distribution
system.l2bus.trans_dist::UpgradeReq                 1                       # Transaction distribution
system.l2bus.trans_dist::UpgradeResp                1                       # Transaction distribution
system.l2bus.trans_dist::ReadExReq                121                       # Transaction distribution
system.l2bus.trans_dist::ReadExResp               121                       # Transaction distribution
system.l2bus.trans_dist::ReadSharedReq          63027                       # Transaction distribution
system.l2bus.pkt_count_system.cpu.icache.mem_side_port::system.l2cache.cpu_side_port         1229                       # Packet count per connected requestor and responder (bytes)
system.l2bus.pkt_count_system.cpu.dcache.mem_side_port::system.l2cache.cpu_side_port       186955                       # Packet count per connected requestor and responder (bytes)
system.l2bus.pkt_count::total                  188184                       # Packet count per connected requestor and responder (bytes)
system.l2bus.pkt_size_system.cpu.icache.mem_side_port::system.l2cache.cpu_side_port        31296                       # Cumulative packet size per connected requestor and responder (bytes)
system.l2bus.pkt_size_system.cpu.dcache.mem_side_port::system.l2cache.cpu_side_port      4019328                       # Cumulative packet size per connected requestor and responder (bytes)
system.l2bus.pkt_size::total                  4050624                       # Cumulative packet size per connected requestor and responder (bytes)
system.l2bus.snoops                               732                       # Total snoops (count)
system.l2bus.snoopTraffic                        9152                       # Total snoop traffic (bytes)
system.l2bus.snoop_fanout::samples              63881                       # Request fanout histogram
system.l2bus.snoop_fanout::mean              0.003788                       # Request fanout histogram
system.l2bus.snoop_fanout::stdev             0.061433                       # Request fanout histogram
system.l2bus.snoop_fanout::underflows               0      0.00%      0.00% # Request fanout histogram
system.l2bus.snoop_fanout::0                    63639     99.62%     99.62% # Request fanout histogram
system.l2bus.snoop_fanout::1                      242      0.38%    100.00% # Request fanout histogram
system.l2bus.snoop_fanout::2                        0      0.00%    100.00% # Request fanout histogram
system.l2bus.snoop_fanout::overflows                0      0.00%    100.00% # Request fanout histogram
system.l2bus.snoop_fanout::min_value                0                       # Request fanout histogram
system.l2bus.snoop_fanout::max_value                1                       # Request fanout histogram
system.l2bus.snoop_fanout::total                63881                       # Request fanout histogram
system.l2bus.power_state.pwrStateResidencyTicks::UNDEFINED   3873589000                       # Cumulative time (in ticks) in various power states
system.l2bus.reqLayer0.occupancy            125321000                       # Layer occupancy (ticks)
system.l2bus.reqLayer0.utilization                3.2                       # Layer utilization (%)
system.l2bus.respLayer0.occupancy             1467000                       # Layer occupancy (ticks)
system.l2bus.respLayer0.utilization               0.0                       # Layer utilization (%)
system.l2bus.respLayer1.occupancy           187978000                       # Layer occupancy (ticks)
system.l2bus.respLayer1.utilization               4.9                       # Layer utilization (%)
system.l2cache.demand_hits::.cpu.inst              24                       # number of demand (read+write) hits
system.l2cache.demand_hits::.cpu.data           46008                       # number of demand (read+write) hits
system.l2cache.demand_hits::total               46032                       # number of demand (read+write) hits
system.l2cache.overall_hits::.cpu.inst             24                       # number of overall hits
system.l2cache.overall_hits::.cpu.data          46008                       # number of overall hits
system.l2cache.overall_hits::total              46032                       # number of overall hits
system.l2cache.demand_misses::.cpu.inst           465                       # number of demand (read+write) misses
system.l2cache.demand_misses::.cpu.data         16651                       # number of demand (read+write) misses
system.l2cache.demand_misses::total             17116                       # number of demand (read+write) misses
system.l2cache.overall_misses::.cpu.inst          465                       # number of overall misses
system.l2cache.overall_misses::.cpu.data        16651                       # number of overall misses
system.l2cache.overall_misses::total            17116                       # number of overall misses
system.l2cache.demand_miss_latency::.cpu.inst     46052000                       # number of demand (read+write) miss cycles
system.l2cache.demand_miss_latency::.cpu.data   1909933000                       # number of demand (read+write) miss cycles
system.l2cache.demand_miss_latency::total   1955985000                       # number of demand (read+write) miss cycles
system.l2cache.overall_miss_latency::.cpu.inst     46052000                       # number of overall miss cycles
system.l2cache.overall_miss_latency::.cpu.data   1909933000                       # number of overall miss cycles
system.l2cache.overall_miss_latency::total   1955985000                       # number of overall miss cycles
system.l2cache.demand_accesses::.cpu.inst          489                       # number of demand (read+write) accesses
system.l2cache.demand_accesses::.cpu.data        62659                       # number of demand (read+write) accesses
system.l2cache.demand_accesses::total           63148                       # number of demand (read+write) accesses
system.l2cache.overall_accesses::.cpu.inst          489                       # number of overall (read+write) accesses
system.l2cache.overall_accesses::.cpu.data        62659                       # number of overall (read+write) accesses
system.l2cache.overall_accesses::total          63148                       # number of overall (read+write) accesses
system.l2cache.demand_miss_rate::.cpu.inst     0.950920                       # miss rate for demand accesses
system.l2cache.demand_miss_rate::.cpu.data     0.265740                       # miss rate for demand accesses
system.l2cache.demand_miss_rate::total       0.271046                       # miss rate for demand accesses
system.l2cache.overall_miss_rate::.cpu.inst     0.950920                       # miss rate for overall accesses
system.l2cache.overall_miss_rate::.cpu.data     0.265740                       # miss rate for overall accesses
system.l2cache.overall_miss_rate::total      0.271046                       # miss rate for overall accesses
system.l2cache.demand_avg_miss_latency::.cpu.inst 99036.559140                       # average overall miss latency
system.l2cache.demand_avg_miss_latency::.cpu.data 114703.801573                       # average overall miss latency
system.l2cache.demand_avg_miss_latency::total 114278.160785                       # average overall miss latency
system.l2cache.overall_avg_miss_latency::.cpu.inst 99036.559140                       # average overall miss latency
system.l2cache.overall_avg_miss_latency::.cpu.data 114703.801573                       # average overall miss latency
system.l2cache.overall_avg_miss_latency::total 114278.160785                       # average overall miss latency
system.l2cache.blocked_cycles::no_mshrs             0                       # number of cycles access was blocked
system.l2cache.blocked_cycles::no_targets            0                       # number of cycles access was blocked
system.l2cache.blocked::no_mshrs                    0                       # number of cycles access was blocked
system.l2cache.blocked::no_targets                  0                       # number of cycles access was blocked
system.l2cache.avg_blocked_cycles::no_mshrs          nan                       # average number of cycles each access was blocked
system.l2cache.avg_blocked_cycles::no_targets          nan                       # average number of cycles each access was blocked
system.l2cache.writebacks::.writebacks            143                       # number of writebacks
system.l2cache.writebacks::total                  143                       # number of writebacks
system.l2cache.demand_mshr_misses::.cpu.inst          465                       # number of demand (read+write) MSHR misses
system.l2cache.demand_mshr_misses::.cpu.data        16651                       # number of demand (read+write) MSHR misses
[...]
system.mem_ctrl.requestorReadRate::.cpu.data 275110240.141636073589                       # Per-requestor bytes read from memory rate (Bytes/sec)
system.mem_ctrl.requestorWriteRate::.writebacks 2015701.717451180099                       # Per-requestor bytes write to memory rate (Bytes/sec)
system.mem_ctrl.requestorReadAccesses::.cpu.inst          465                       # Per-requestor read serviced memory accesses
system.mem_ctrl.requestorReadAccesses::.cpu.data        16651                       # Per-requestor read serviced memory accesses
system.mem_ctrl.requestorWriteAccesses::.writebacks          143                       # Per-requestor write serviced memory accesses
system.mem_ctrl.requestorReadTotalLat::.cpu.inst     12873250                       # Per-requestor read total memory access latency
system.mem_ctrl.requestorReadTotalLat::.cpu.data    717433000                       # Per-requestor read total memory access latency
system.mem_ctrl.requestorWriteTotalLat::.writebacks  33962104000                       # Per-requestor write total memory access latency
system.mem_ctrl.requestorReadAvgLat::.cpu.inst     27684.41                       # Per-requestor read average memory access latency
system.mem_ctrl.requestorReadAvgLat::.cpu.data     43086.48                       # Per-requestor read average memory access latency
system.mem_ctrl.requestorWriteAvgLat::.writebacks 237497230.77                       # Per-requestor write average memory access latency
system.mem_ctrl.dram.bytes_read::.cpu.inst        29760                       # Number of bytes read from this memory
system.mem_ctrl.dram.bytes_read::.cpu.data      1065664                       # Number of bytes read from this memory
system.mem_ctrl.dram.bytes_read::total        1095424                       # Number of bytes read from this memory
system.mem_ctrl.dram.bytes_inst_read::.cpu.inst        29760                       # Number of instructions bytes read from this memory
system.mem_ctrl.dram.bytes_inst_read::total        29760                       # Number of instructions bytes read from this memory
system.mem_ctrl.dram.bytes_written::.writebacks         9152                       # Number of bytes written to this memory
system.mem_ctrl.dram.bytes_written::total         9152                       # Number of bytes written to this memory
system.mem_ctrl.dram.num_reads::.cpu.inst          465                       # Number of read requests responded to by this memory
system.mem_ctrl.dram.num_reads::.cpu.data        16651                       # Number of read requests responded to by this memory
system.mem_ctrl.dram.num_reads::total           17116                       # Number of read requests responded to by this memory
system.mem_ctrl.dram.num_writes::.writebacks          143                       # Number of write requests responded to by this memory
system.mem_ctrl.dram.num_writes::total            143                       # Number of write requests responded to by this memory
system.mem_ctrl.dram.bw_read::.cpu.inst       7682798                       # Total read bandwidth from this memory (bytes/s)
system.mem_ctrl.dram.bw_read::.cpu.data     275110240                       # Total read bandwidth from this memory (bytes/s)
system.mem_ctrl.dram.bw_read::total         282793038                       # Total read bandwidth from this memory (bytes/s)
system.mem_ctrl.dram.bw_inst_read::.cpu.inst      7682798                       # Instruction read bandwidth from this memory (bytes/s)
system.mem_ctrl.dram.bw_inst_read::total      7682798                       # Instruction read bandwidth from this memory (bytes/s)
system.mem_ctrl.dram.bw_write::.writebacks      2362667                       # Write bandwidth from this memory (bytes/s)
system.mem_ctrl.dram.bw_write::total          2362667                       # Write bandwidth from this memory (bytes/s)
system.mem_ctrl.dram.bw_total::.writebacks      2362667                       # Total bandwidth to/from this memory (bytes/s)
system.mem_ctrl.dram.bw_total::.cpu.inst      7682798                       # Total bandwidth to/from this memory (bytes/s)
system.mem_ctrl.dram.bw_total::.cpu.data    275110240                       # Total bandwidth to/from this memory (bytes/s)
system.mem_ctrl.dram.bw_total::total        285155704                       # Total bandwidth to/from this memory (bytes/s)
system.mem_ctrl.dram.readBursts                 17116                       # Number of DRAM read bursts
system.mem_ctrl.dram.writeBursts                  122                       # Number of DRAM write bursts
system.mem_ctrl.dram.perBankRdBursts::0          1119                       # Per bank write bursts
system.mem_ctrl.dram.perBankRdBursts::1          1126                       # Per bank write bursts
system.mem_ctrl.dram.perBankRdBursts::2          1042                       # Per bank write bursts
system.mem_ctrl.dram.perBankRdBursts::3          1080                       # Per bank write bursts
system.mem_ctrl.dram.perBankRdBursts::4          1031                       # Per bank write bursts
system.mem_ctrl.dram.perBankRdBursts::5          1041                       # Per bank write bursts
system.mem_ctrl.dram.perBankRdBursts::6          1095                       # Per bank write bursts
system.mem_ctrl.dram.perBankRdBursts::7          1066                       # Per bank write bursts
system.mem_ctrl.dram.perBankRdBursts::8          1038                       # Per bank write bursts
system.mem_ctrl.dram.perBankRdBursts::9          1034                       # Per bank write bursts
system.mem_ctrl.dram.perBankRdBursts::10         1038                       # Per bank write bursts
system.mem_ctrl.dram.perBankRdBursts::11         1058                       # Per bank write bursts
system.mem_ctrl.dram.perBankRdBursts::12         1088                       # Per bank write bursts
system.mem_ctrl.dram.perBankRdBursts::13         1039                       # Per bank write bursts
system.mem_ctrl.dram.perBankRdBursts::14         1088                       # Per bank write bursts
system.mem_ctrl.dram.perBankRdBursts::15         1133                       # Per bank write bursts
system.mem_ctrl.dram.perBankWrBursts::0            18                       # Per bank write bursts
system.mem_ctrl.dram.perBankWrBursts::1            25                       # Per bank write bursts
system.mem_ctrl.dram.perBankWrBursts::2             4                       # Per bank write bursts
system.mem_ctrl.dram.perBankWrBursts::3            42                       # Per bank write bursts
system.mem_ctrl.dram.perBankWrBursts::4             0                       # Per bank write bursts
system.mem_ctrl.dram.perBankWrBursts::5             0                       # Per bank write bursts
system.mem_ctrl.dram.perBankWrBursts::6             0                       # Per bank write bursts
system.mem_ctrl.dram.perBankWrBursts::7             0                       # Per bank write bursts
system.mem_ctrl.dram.perBankWrBursts::8             0                       # Per bank write bursts
system.mem_ctrl.dram.perBankWrBursts::9             0                       # Per bank write bursts
system.mem_ctrl.dram.perBankWrBursts::10            0                       # Per bank write bursts
system.mem_ctrl.dram.perBankWrBursts::11            0                       # Per bank write bursts
system.mem_ctrl.dram.perBankWrBursts::12            0                       # Per bank write bursts
system.mem_ctrl.dram.perBankWrBursts::13            0                       # Per bank write bursts
system.mem_ctrl.dram.perBankWrBursts::14            0                       # Per bank write bursts
system.mem_ctrl.dram.perBankWrBursts::15           33                       # Per bank write bursts
system.mem_ctrl.dram.totQLat                409381250                       # Total ticks spent queuing
system.mem_ctrl.dram.totBusLat               85580000                       # Total ticks spent in databus transfers
system.mem_ctrl.dram.totMemAccLat           730306250                       # Total ticks spent from burst creation until serviced by the DRAM
system.mem_ctrl.dram.avgQLat                 23918.04                       # Average queueing delay per DRAM burst
system.mem_ctrl.dram.avgBusLat                5000.00                       # Average bus latency per DRAM burst
system.mem_ctrl.dram.avgMemAccLat            42668.04                       # Average memory access latency per DRAM burst
system.mem_ctrl.dram.readRowHits                 1815                       # Number of row buffer hits during reads
system.mem_ctrl.dram.writeRowHits                 102                       # Number of row buffer hits during writes
system.mem_ctrl.dram.readRowHitRate             10.60                       # Row buffer hit rate for reads
system.mem_ctrl.dram.writeRowHitRate            83.61                       # Row buffer hit rate for writes
system.mem_ctrl.dram.bytesPerActivate::samples        15310                       # Bytes accessed per row activation
system.mem_ctrl.dram.bytesPerActivate::mean    71.900718                       # Bytes accessed per row activation
system.mem_ctrl.dram.bytesPerActivate::gmean    68.452297                       # Bytes accessed per row activation
system.mem_ctrl.dram.bytesPerActivate::stdev    43.278952                       # Bytes accessed per row activation
system.mem_ctrl.dram.bytesPerActivate::0-127        14045     91.74%     91.74% # Bytes accessed per row activation
system.mem_ctrl.dram.bytesPerActivate::128-255         1177      7.69%     99.43% # Bytes accessed per row activation
system.mem_ctrl.dram.bytesPerActivate::256-383           37      0.24%     99.67% # Bytes accessed per row activation
system.mem_ctrl.dram.bytesPerActivate::384-511           15      0.10%     99.76% # Bytes accessed per row activation
system.mem_ctrl.dram.bytesPerActivate::512-639           11      0.07%     99.84% # Bytes accessed per row activation
system.mem_ctrl.dram.bytesPerActivate::640-767            8      0.05%     99.89% # Bytes accessed per row activation
system.mem_ctrl.dram.bytesPerActivate::768-895            2      0.01%     99.90% # Bytes accessed per row activation
system.mem_ctrl.dram.bytesPerActivate::896-1023            2      0.01%     99.92% # Bytes accessed per row activation
system.mem_ctrl.dram.bytesPerActivate::1024-1151           13      0.08%    100.00% # Bytes accessed per row activation
system.mem_ctrl.dram.bytesPerActivate::total        15310                       # Bytes accessed per row activation
system.mem_ctrl.dram.bytesRead                1095424                       # Total number of bytes read from DRAM
system.mem_ctrl.dram.bytesWritten                7808                       # Total number of bytes written to DRAM
system.mem_ctrl.dram.avgRdBW               282.793038                       # Average DRAM read bandwidth in MiBytes/s
system.mem_ctrl.dram.avgWrBW                 2.015702                       # Average DRAM write bandwidth in MiBytes/s
system.mem_ctrl.dram.peakBW                  12800.00                       # Theoretical peak bandwidth in MiByte/s
system.mem_ctrl.dram.busUtil                     2.23                       # Data bus utilization in percentage
system.mem_ctrl.dram.busUtilRead                 2.21                       # Data bus utilization in percentage for reads
system.mem_ctrl.dram.busUtilWrite                0.02                       # Data bus utilization in percentage for writes
system.mem_ctrl.dram.pageHitRate                11.12                       # Row buffer hit rate, read and write combined
system.mem_ctrl.dram.power_state.pwrStateResidencyTicks::UNDEFINED   3873589000                       # Cumulative time (in ticks) in various power states
system.mem_ctrl.dram.rank0.actEnergy         55020840                       # Energy for activate commands per rank (pJ)
system.mem_ctrl.dram.rank0.preEnergy         29221500                       # Energy for precharge commands per rank (pJ)
system.mem_ctrl.dram.rank0.readEnergy        61404000                       # Energy for read commands per rank (pJ)
system.mem_ctrl.dram.rank0.writeEnergy         464580                       # Energy for write commands per rank (pJ)
system.mem_ctrl.dram.rank0.refreshEnergy 305476080.000000                       # Energy for refresh commands per rank (pJ)
system.mem_ctrl.dram.rank0.actBackEnergy   1471546770                       # Energy for active background per rank (pJ)
system.mem_ctrl.dram.rank0.preBackEnergy    248261280                       # Energy for precharge background per rank (pJ)
system.mem_ctrl.dram.rank0.actPowerDownEnergy            0                       # Energy for active power-down per rank (pJ)
system.mem_ctrl.dram.rank0.prePowerDownEnergy            0                       # Energy for precharge power-down per rank (pJ)
system.mem_ctrl.dram.rank0.selfRefreshEnergy            0                       # Energy for self refresh per rank (pJ)
system.mem_ctrl.dram.rank0.totalEnergy     2171395050                       # Total energy per rank (pJ)
system.mem_ctrl.dram.rank0.averagePower    560.564131                       # Core power per rank (mW)
system.mem_ctrl.dram.rank0.totalIdleTime            0                       # Total Idle time Per DRAM Rank
system.mem_ctrl.dram.rank0.pwrStateTime::IDLE    632426250                       # Time in different power states
system.mem_ctrl.dram.rank0.pwrStateTime::REF    129220000                       # Time in different power states
system.mem_ctrl.dram.rank0.pwrStateTime::SREF            0                       # Time in different power states
system.mem_ctrl.dram.rank0.pwrStateTime::PRE_PDN            0                       # Time in different power states
system.mem_ctrl.dram.rank0.pwrStateTime::ACT   3111942750                       # Time in different power states
system.mem_ctrl.dram.rank0.pwrStateTime::ACT_PDN            0                       # Time in different power states
system.mem_ctrl.dram.rank1.actEnergy         54371100                       # Energy for activate commands per rank (pJ)
system.mem_ctrl.dram.rank1.preEnergy         28879950                       # Energy for precharge commands per rank (pJ)
system.mem_ctrl.dram.rank1.readEnergy        60804240                       # Energy for read commands per rank (pJ)
system.mem_ctrl.dram.rank1.writeEnergy         172260                       # Energy for write commands per rank (pJ)
system.mem_ctrl.dram.rank1.refreshEnergy 305476080.000000                       # Energy for refresh commands per rank (pJ)
system.mem_ctrl.dram.rank1.actBackEnergy   1457123490                       # Energy for active background per rank (pJ)
system.mem_ctrl.dram.rank1.preBackEnergy    260407200                       # Energy for precharge background per rank (pJ)
system.mem_ctrl.dram.rank1.actPowerDownEnergy            0                       # Energy for active power-down per rank (pJ)
system.mem_ctrl.dram.rank1.prePowerDownEnergy            0                       # Energy for precharge power-down per rank (pJ)
system.mem_ctrl.dram.rank1.selfRefreshEnergy            0                       # Energy for self refresh per rank (pJ)
system.mem_ctrl.dram.rank1.totalEnergy     2167234320                       # Total energy per rank (pJ)
system.mem_ctrl.dram.rank1.averagePower    559.490003                       # Core power per rank (mW)
system.mem_ctrl.dram.rank1.totalIdleTime            0                       # Total Idle time Per DRAM Rank
system.mem_ctrl.dram.rank1.pwrStateTime::IDLE    664654250                       # Time in different power states
system.mem_ctrl.dram.rank1.pwrStateTime::REF    129220000                       # Time in different power states
system.mem_ctrl.dram.rank1.pwrStateTime::SREF            0                       # Time in different power states
system.mem_ctrl.dram.rank1.pwrStateTime::PRE_PDN            0                       # Time in different power states
system.mem_ctrl.dram.rank1.pwrStateTime::ACT   3079714750                       # Time in different power states
system.mem_ctrl.dram.rank1.pwrStateTime::ACT_PDN            0                       # Time in different power states
system.mem_ctrl.power_state.pwrStateResidencyTicks::UNDEFINED   3873589000                       # Cumulative time (in ticks) in various power states
system.membus.trans_dist::ReadResp              16995                       # Transaction distribution
system.membus.trans_dist::WritebackDirty          143                       # Transaction distribution
system.membus.trans_dist::CleanEvict              384                       # Transaction distribution
system.membus.trans_dist::ReadExReq               121                       # Transaction distribution
system.membus.trans_dist::ReadExResp              121                       # Transaction distribution
system.membus.trans_dist::ReadSharedReq         16995                       # Transaction distribution
system.membus.pkt_count_system.l2cache.mem_side_port::system.mem_ctrl.port        34759                       # Packet count per connected requestor and responder (bytes)
system.membus.pkt_count_system.l2cache.mem_side_port::total        34759                       # Packet count per connected requestor and responder (bytes)
system.membus.pkt_count::total                  34759                       # Packet count per connected requestor and responder (bytes)
system.membus.pkt_size_system.l2cache.mem_side_port::system.mem_ctrl.port      1104576                       # Cumulative packet size per connected requestor and responder (bytes)
system.membus.pkt_size_system.l2cache.mem_side_port::total      1104576                       # Cumulative packet size per connected requestor and responder (bytes)
system.membus.pkt_size::total                 1104576                       # Cumulative packet size per connected requestor and responder (bytes)
system.membus.snoops                                0                       # Total snoops (count)
system.membus.snoopTraffic                          0                       # Total snoop traffic (bytes)
system.membus.snoop_fanout::samples             17116                       # Request fanout histogram
system.membus.snoop_fanout::mean                    0                       # Request fanout histogram
system.membus.snoop_fanout::stdev                   0                       # Request fanout histogram
system.membus.snoop_fanout::underflows              0      0.00%      0.00% # Request fanout histogram
system.membus.snoop_fanout::0                   17116    100.00%    100.00% # Request fanout histogram
system.membus.snoop_fanout::1                       0      0.00%    100.00% # Request fanout histogram
system.membus.snoop_fanout::overflows               0      0.00%    100.00% # Request fanout histogram
system.membus.snoop_fanout::min_value               0                       # Request fanout histogram
system.membus.snoop_fanout::max_value               0                       # Request fanout histogram
system.membus.snoop_fanout::total               17116                       # Request fanout histogram
system.membus.power_state.pwrStateResidencyTicks::UNDEFINED   3873589000                       # Cumulative time (in ticks) in various power states
system.membus.reqLayer2.occupancy            18215000                       # Layer occupancy (ticks)
system.membus.reqLayer2.utilization               0.5                       # Layer utilization (%)
system.membus.respLayer0.occupancy           95995750                       # Layer occupancy (ticks)
system.membus.respLayer0.utilization              2.5                       # Layer utilization (%)

---------- End Simulation Statistics   ----------
