
---------- Begin Simulation Statistics ----------
final_tick                               114303454000                       # Number of ticks from beginning of simulation (restored from checkpoints and never reset)
host_inst_rate                                 506920                       # Simulator instruction rate (inst/s)
host_mem_usage                                 651172                       # Number of bytes of host memory used
host_op_rate                                   875781                       # Simulator op (including micro ops) rate (op/s)
host_seconds                                    61.48                       # Real time elapsed on the host
host_tick_rate                             1859295786                       # Simulator tick rate (ticks/s)
sim_freq                                 1000000000000                       # Frequency of simulated ticks
sim_insts                                    31163641                       # Number of instructions simulated
sim_ops                                      53840150                       # Number of ops (including micro ops) simulated
sim_seconds                                  0.114303                       # Number of seconds simulated
sim_ticks                                114303454000                       # Number of ticks simulated
system.cpu.Branches                           3147977                       # Number of branches fetched
system.cpu.committedInsts                    31163641                       # Number of instructions committed
system.cpu.committedOps                      53840150                       # Number of ops (including micro ops) committed
system.cpu.idle_fraction                     0.000000                       # Percentage of idle cycles
system.cpu.not_idle_fraction                 1.000000                       # Percentage of non-idle cycles
system.cpu.numCycles                        114303454                       # number of cpu cycles simulated
system.cpu.numWorkItemsCompleted                    0                       # number of work items this cpu completed
system.cpu.numWorkItemsStarted                      0                       # number of work items this cpu started
system.cpu.num_busy_cycles               114303453.999000                       # Number of busy cycles
system.cpu.num_cc_register_reads             14822472                       # number of times the CC registers were read
system.cpu.num_cc_register_writes            15871411                       # number of times the CC registers were written
system.cpu.num_conditional_control_insts      2621583                       # number of instructions that are conditional controls
system.cpu.num_fp_alu_accesses               17960399                       # Number of float alu accesses
system.cpu.num_fp_insts                      17960399                       # number of float instructions
system.cpu.num_fp_register_reads             32379967                       # number of times the floating registers were read
system.cpu.num_fp_register_writes            16583141                       # number of times the floating registers were written
system.cpu.num_func_calls                      525578                       # number of times a function call or return occured
system.cpu.num_idle_cycles                   0.001000                       # Number of idle cycles
system.cpu.num_int_alu_accesses              39667166                       # Number of integer alu accesses
system.cpu.num_int_insts                     39667166                       # number of integer instructions
system.cpu.num_int_register_reads            74191325                       # number of times the integer registers were read
system.cpu.num_int_register_writes           30193689                       # number of times the integer registers were written
system.cpu.num_load_insts                     6721705                       # Number of load instructions
system.cpu.num_mem_refs                      10374293                       # number of memory refs
system.cpu.num_store_insts                    3652588                       # Number of store instructions
system.cpu.num_vec_alu_accesses                     0                       # Number of vector alu accesses
system.cpu.num_vec_insts                            0                       # number of vector instructions
system.cpu.num_vec_register_reads                   0                       # number of times the vector registers were read
system.cpu.num_vec_register_writes                  0                       # number of times the vector registers were written
system.cpu.op_class::No_OpClass                277437      0.52%      0.52% # Class of executed instruction
system.cpu.op_class::IntAlu                  29882385     55.50%     56.02% # Class of executed instruction
system.cpu.op_class::IntMult                       29      0.00%     56.02% # Class of executed instruction
system.cpu.op_class::IntDiv                       196      0.00%     56.02% # Class of executed instruction
system.cpu.op_class::FloatAdd                 1573060      2.92%     58.94% # Class of executed instruction
system.cpu.op_class::FloatCmp                       0      0.00%     58.94% # Class of executed instruction
system.cpu.op_class::FloatCvt                       0      0.00%     58.94% # Class of executed instruction
system.cpu.op_class::FloatMult                      0      0.00%     58.94% # Class of executed instruction
system.cpu.op_class::FloatMultAcc                   0      0.00%     58.94% # Class of executed instruction
system.cpu.op_class::FloatDiv                       0      0.00%     58.94% # Class of executed instruction
system.cpu.op_class::FloatMisc                      0      0.00%     58.94% # Class of executed instruction
system.cpu.op_class::FloatSqrt                      0      0.00%     58.94% # Class of executed instruction
system.cpu.op_class::SimdAdd                    32770      0.06%     59.00% # Class of executed instruction
system.cpu.op_class::SimdAddAcc                     0      0.00%     59.00% # Class of executed instruction
system.cpu.op_class::SimdAlu                  2097654      3.90%     62.90% # Class of executed instruction
system.cpu.op_class::SimdCmp                        6      0.00%     62.90% # Class of executed instruction
system.cpu.op_class::SimdCvt                    33224      0.06%     62.96% # Class of executed instruction
system.cpu.op_class::SimdMisc                 2163418      4.02%     66.98% # Class of executed instruction
system.cpu.op_class::SimdMult                       0      0.00%     66.98% # Class of executed instruction
system.cpu.op_class::SimdMultAcc                    0      0.00%     66.98% # Class of executed instruction
system.cpu.op_class::SimdShift                      6      0.00%     66.98% # Class of executed instruction
system.cpu.op_class::SimdShiftAcc                   0      0.00%     66.98% # Class of executed instruction
system.cpu.op_class::SimdDiv                        0      0.00%     66.98% # Class of executed instruction
system.cpu.op_class::SimdSqrt                       0      0.00%     66.98% # Class of executed instruction
system.cpu.op_class::SimdFloatAdd             1769545      3.29%     70.26% # Class of executed instruction
system.cpu.op_class::SimdFloatAlu                   0      0.00%     70.26% # Class of executed instruction
system.cpu.op_class::SimdFloatCmp                   0      0.00%     70.26% # Class of executed instruction
system.cpu.op_class::SimdFloatCvt             2162696      4.02%     74.28% # Class of executed instruction
system.cpu.op_class::SimdFloatDiv                   2      0.00%     74.28% # Class of executed instruction
system.cpu.op_class::SimdFloatMisc                  0      0.00%     74.28% # Class of executed instruction
system.cpu.op_class::SimdFloatMult            3473479      6.45%     80.73% # Class of executed instruction
system.cpu.op_class::SimdFloatMultAcc               0      0.00%     80.73% # Class of executed instruction
system.cpu.op_class::SimdFloatSqrt                  0      0.00%     80.73% # Class of executed instruction
system.cpu.op_class::SimdReduceAdd                  0      0.00%     80.73% # Class of executed instruction
system.cpu.op_class::SimdReduceAlu                  0      0.00%     80.73% # Class of executed instruction
system.cpu.op_class::SimdReduceCmp                  0      0.00%     80.73% # Class of executed instruction
system.cpu.op_class::SimdFloatReduceAdd             0      0.00%     80.73% # Class of executed instruction
system.cpu.op_class::SimdFloatReduceCmp             0      0.00%     80.73% # Class of executed instruction
system.cpu.op_class::SimdAes                        0      0.00%     80.73% # Class of executed instruction
system.cpu.op_class::SimdAesMix                     0      0.00%     80.73% # Class of executed instruction
system.cpu.op_class::SimdSha1Hash                   0      0.00%     80.73% # Class of executed instruction
system.cpu.op_class::SimdSha1Hash2                  0      0.00%     80.73% # Class of executed instruction
system.cpu.op_class::SimdSha256Hash                 0      0.00%     80.73% # Class of executed instruction
system.cpu.op_class::SimdSha256Hash2                0      0.00%     80.73% # Class of executed instruction
system.cpu.op_class::SimdShaSigma2                  0      0.00%     80.73% # Class of executed instruction
system.cpu.op_class::SimdShaSigma3                  0      0.00%     80.73% # Class of executed instruction
system.cpu.op_class::SimdPredAlu                    0      0.00%     80.73% # Class of executed instruction
system.cpu.op_class::MemRead                  5082841      9.44%     90.17% # Class of executed instruction
system.cpu.op_class::MemWrite                 3389751      6.30%     96.47% # Class of executed instruction
system.cpu.op_class::FloatMemRead             1638864      3.04%     99.51% # Class of executed instruction
system.cpu.op_class::FloatMemWrite             262837      0.49%    100.00% # Class of executed instruction
system.cpu.op_class::IprAccess                      0      0.00%    100.00% # Class of executed instruction
system.cpu.op_class::InstPrefetch                   0      0.00%    100.00% # Class of executed instruction
system.cpu.op_class::total                   53840200                       # Class of executed instruction
system.cpu.workload.numSyscalls                    46                       # Number of system calls
system.l2bus.snoop_filter.hit_multi_requests            0                       # Number of requests hitting in the snoop filter with multiple (>1) holders of the requested data.
system.l2bus.snoop_filter.hit_multi_snoops            0                       # Number of snoops hitting in the snoop filter with multiple (>1) holders of the requested data.
system.l2bus.snoop_filter.hit_single_requests       249874                       # Number of requests hitting in the snoop filter with a single holder of the requested data.
system.l2bus.snoop_filter.hit_single_snoops          122                       # Number of snoops hitting in the snoop filter with a single holder of the requested data.
system.l2bus.snoop_filter.tot_requests         501027                       # Total number of requests made to the snoop filter.
system.l2bus.snoop_filter.tot_snoops              122                       # Total number of snoops made to the snoop filter.
system.membus.snoop_filter.hit_multi_requests            0                       # Number of requests hitting in the snoop filter with multiple (>1) holders of the requested data.
system.membus.snoop_filter.hit_multi_snoops            0                       # Number of snoops hitting in the snoop filter with multiple (>1) holders of the requested data.
system.membus.snoop_filter.hit_single_requests           31                       # Number of requests hitting in the snoop filter with a single holder of the requested data.
system.membus.snoop_filter.hit_single_snoops            0                       # Number of snoops hitting in the snoop filter with a single holder of the requested data.
system.membus.snoop_filter.tot_requests          9533                       # Total number of requests made to the snoop filter.
system.membus.snoop_filter.tot_snoops               0                       # Total number of snoops made to the snoop filter.
system.clk_domain.clock                          1000                       # Clock period in ticks
system.clk_domain.voltage_domain.voltage            1                       # Voltage in Volts
system.cpu.dcache.demand_hits::.cpu.data     10128300                       # number of demand (read+write) hits
system.cpu.dcache.demand_hits::total         10128300                       # number of demand (read+write) hits
system.cpu.dcache.overall_hits::.cpu.data     10128300                       # number of overall hits
system.cpu.dcache.overall_hits::total        10128300                       # number of overall hits
system.cpu.dcache.demand_misses::.cpu.data       250136                       # number of demand (read+write) misses
system.cpu.dcache.demand_misses::total         250136                       # number of demand (read+write) misses
system.cpu.dcache.overall_misses::.cpu.data       250136                       # number of overall misses
system.cpu.dcache.overall_misses::total        250136                       # number of overall misses
system.cpu.dcache.demand_miss_latency::.cpu.data   7247142000                       # number of demand (read+write) miss cycles
system.cpu.dcache.demand_miss_latency::total   7247142000                       # number of demand (read+write) miss cycles
system.cpu.dcache.overall_miss_latency::.cpu.data   7247142000                       # number of overall miss cycles
system.cpu.dcache.overall_miss_latency::total   7247142000                       # number of overall miss cycles
system.cpu.dcache.demand_accesses::.cpu.data     10378436                       # number of demand (read+write) accesses
system.cpu.dcache.demand_accesses::total     10378436                       # number of demand (read+write) accesses
system.cpu.dcache.overall_accesses::.cpu.data     10378436                       # number of overall (read+write) accesses
system.cpu.dcache.overall_accesses::total     10378436                       # number of overall (read+write) accesses
system.cpu.dcache.demand_miss_rate::.cpu.data     0.024102                       # miss rate for demand accesses
system.cpu.dcache.demand_miss_rate::total     0.024102                       # miss rate for demand accesses
system.cpu.dcache.overall_miss_rate::.cpu.data     0.024102                       # miss rate for overall accesses
system.cpu.dcache.overall_miss_rate::total     0.024102                       # miss rate for overall accesses
system.cpu.dcache.demand_avg_miss_latency::.cpu.data 28972.806793                       # average overall miss latency
system.cpu.dcache.demand_avg_miss_latency::total 28972.806793                       # average overall miss latency
system.cpu.dcache.overall_avg_miss_latency::.cpu.data 28972.806793                       # average overall miss latency
system.cpu.dcache.overall_avg_miss_latency::total 28972.806793                       # average overall miss latency
system.cpu.dcache.blocked_cycles::no_mshrs            0                       # number of cycles access was blocked
system.cpu.dcache.blocked_cycles::no_targets            0                       # number of cycles access was blocked
system.cpu.dcache.blocked::no_mshrs                 0                       # number of cycles access was blocked
system.cpu.dcache.blocked::no_targets               0                       # number of cycles access was blocked
system.cpu.dcache.avg_blocked_cycles::no_mshrs          nan                       # average number of cycles each access was blocked
system.cpu.dcache.avg_blocked_cycles::no_targets          nan                       # average number of cycles each access was blocked
system.cpu.dcache.writebacks::.writebacks       248986                       # number of writebacks
system.cpu.dcache.writebacks::total            248986                       # number of writebacks
system.cpu.dcache.demand_mshr_misses::.cpu.data       250136                       # number of demand (read+write) MSHR misses
system.cpu.dcache.demand_mshr_misses::total       250136                       # number of demand (read+write) MSHR misses
system.cpu.dcache.overall_mshr_misses::.cpu.data       250136                       # number of overall MSHR misses
system.cpu.dcache.overall_mshr_misses::total       250136                       # number of overall MSHR misses
system.cpu.dcache.demand_mshr_miss_latency::.cpu.data   6746870000                       # number of demand (read+write) MSHR miss cycles
system.cpu.dcache.demand_mshr_miss_latency::total   6746870000                       # number of demand (read+write) MSHR miss cycles
system.cpu.dcache.overall_mshr_miss_latency::.cpu.data   6746870000                       # number of overall MSHR miss cycles
system.cpu.dcache.overall_mshr_miss_latency::total   6746870000                       # number of overall MSHR miss cycles
system.cpu.dcache.demand_mshr_miss_rate::.cpu.data     0.024102                       # mshr miss rate for demand accesses
system.cpu.dcache.demand_mshr_miss_rate::total     0.024102                       # mshr miss rate for demand accesses
system.cpu.dcache.overall_mshr_miss_rate::.cpu.data     0.024102                       # mshr miss rate for overall accesses
system.cpu.dcache.overall_mshr_miss_rate::total     0.024102                       # mshr miss rate for overall accesses
system.cpu.dcache.demand_avg_mshr_miss_latency::.cpu.data 26972.806793                       # average overall mshr miss latency
system.cpu.dcache.demand_avg_mshr_miss_latency::total 26972.806793                       # average overall mshr miss latency
system.cpu.dcache.overall_avg_mshr_miss_latency::.cpu.data 26972.806793                       # average overall mshr miss latency
system.cpu.dcache.overall_avg_mshr_miss_latency::total 26972.806793                       # average overall mshr miss latency
system.cpu.dcache.replacements                 249112                       # number of replacements
system.cpu.dcache.ReadReq_hits::.cpu.data      6579651                       # number of ReadReq hits
system.cpu.dcache.ReadReq_hits::total         6579651                       # number of ReadReq hits
system.cpu.dcache.ReadReq_misses::.cpu.data       146176                       # number of ReadReq misses
system.cpu.dcache.ReadReq_misses::total        146176                       # number of ReadReq misses
system.cpu.dcache.ReadReq_miss_latency::.cpu.data   3814944000                       # number of ReadReq miss cycles
system.cpu.dcache.ReadReq_miss_latency::total   3814944000                       # number of ReadReq miss cycles
system.cpu.dcache.ReadReq_accesses::.cpu.data      6725827                       # number of ReadReq accesses(hits+misses)
system.cpu.dcache.ReadReq_accesses::total      6725827                       # number of ReadReq accesses(hits+misses)
system.cpu.dcache.ReadReq_miss_rate::.cpu.data     0.021734                       # miss rate for ReadReq accesses
system.cpu.dcache.ReadReq_miss_rate::total     0.021734                       # miss rate for ReadReq accesses
system.cpu.dcache.ReadReq_avg_miss_latency::.cpu.data 26098.292469                       # average ReadReq miss latency
system.cpu.dcache.ReadReq_avg_miss_latency::total 26098.292469                       # average ReadReq miss latency
system.cpu.dcache.ReadReq_mshr_misses::.cpu.data       146176                       # number of ReadReq MSHR misses
system.cpu.dcache.ReadReq_mshr_misses::total       146176                       # number of ReadReq MSHR misses
system.cpu.dcache.ReadReq_mshr_miss_latency::.cpu.data   3522592000                       # number of ReadReq MSHR miss cycles
system.cpu.dcache.ReadReq_mshr_miss_latency::total   3522592000                       # number of ReadReq MSHR miss cycles
system.cpu.dcache.ReadReq_mshr_miss_rate::.cpu.data     0.021734                       # mshr miss rate for ReadReq accesses
system.cpu.dcache.ReadReq_mshr_miss_rate::total     0.021734                       # mshr miss rate for ReadReq accesses
system.cpu.dcache.ReadReq_avg_mshr_miss_latency::.cpu.data 24098.292469                       # average ReadReq mshr miss latency
system.cpu.dcache.ReadReq_avg_mshr_miss_latency::total 24098.292469                       # average ReadReq mshr miss latency
system.cpu.dcache.WriteReq_hits::.cpu.data      3548649                       # number of WriteReq hits
system.cpu.dcache.WriteReq_hits::total        3548649                       # number of WriteReq hits
system.cpu.dcache.WriteReq_misses::.cpu.data       103960                       # number of WriteReq misses
system.cpu.dcache.WriteReq_misses::total       103960                       # number of WriteReq misses
system.cpu.dcache.WriteReq_miss_latency::.cpu.data   3432198000                       # number of WriteReq miss cycles
system.cpu.dcache.WriteReq_miss_latency::total   3432198000                       # number of WriteReq miss cycles
system.cpu.dcache.WriteReq_accesses::.cpu.data      3652609                       # number of WriteReq accesses(hits+misses)
system.cpu.dcache.WriteReq_accesses::total      3652609                       # number of WriteReq accesses(hits+misses)
system.cpu.dcache.WriteReq_miss_rate::.cpu.data     0.028462                       # miss rate for WriteReq accesses
system.cpu.dcache.WriteReq_miss_rate::total     0.028462                       # miss rate for WriteReq accesses
system.cpu.dcache.WriteReq_avg_miss_latency::.cpu.data 33014.601770                       # average WriteReq miss latency
system.cpu.dcache.WriteReq_avg_miss_latency::total 33014.601770                       # average WriteReq miss latency
system.cpu.dcache.WriteReq_mshr_misses::.cpu.data       103960                       # number of WriteReq MSHR misses
system.cpu.dcache.WriteReq_mshr_misses::total       103960                       # number of WriteReq MSHR misses
system.cpu.dcache.WriteReq_mshr_miss_latency::.cpu.data   3224278000                       # number of WriteReq MSHR miss cycles
system.cpu.dcache.WriteReq_mshr_miss_latency::total   3224278000                       # number of WriteReq MSHR miss cycles
system.cpu.dcache.WriteReq_mshr_miss_rate::.cpu.data     0.028462                       # mshr miss rate for WriteReq accesses
system.cpu.dcache.WriteReq_mshr_miss_rate::total     0.028462                       # mshr miss rate for WriteReq accesses
system.cpu.dcache.WriteReq_avg_mshr_miss_latency::.cpu.data 31014.601770                       # average WriteReq mshr miss latency
system.cpu.dcache.WriteReq_avg_mshr_miss_latency::total 31014.601770                       # average WriteReq mshr miss latency
system.cpu.dcache.power_state.pwrStateResidencyTicks::UNDEFINED 114303454000                       # Cumulative time (in ticks) in various power states
system.cpu.dcache.tags.tagsinuse           990.642144                       # Cycle average of tags in use
system.cpu.dcache.tags.total_refs            10378436                       # Total number of references to valid blocks.
system.cpu.dcache.tags.sampled_refs            250136                       # Sample count of references to valid blocks.
system.cpu.dcache.tags.avg_refs             41.491173                       # Average number of references to valid blocks.
system.cpu.dcache.tags.warmup_cycle            224000                       # Cycle when the warmup percentage was hit.
system.cpu.dcache.tags.occ_blocks::.cpu.data   990.642144                       # Average occupied blocks per requestor
system.cpu.dcache.tags.occ_percent::.cpu.data     0.967424                       # Average percentage of cache occupancy
system.cpu.dcache.tags.occ_percent::total     0.967424                       # Average percentage of cache occupancy
system.cpu.dcache.tags.occ_task_id_blocks::1024         1024                       # Occupied blocks per task id
system.cpu.dcache.tags.age_task_id_blocks_1024::0           20                       # Occupied blocks per task id
system.cpu.dcache.tags.age_task_id_blocks_1024::1           45                       # Occupied blocks per task id
system.cpu.dcache.tags.age_task_id_blocks_1024::2          959                       # Occupied blocks per task id
system.cpu.dcache.tags.occ_task_id_percent::1024            1                       # Percentage of cache occupancy per task id
system.cpu.dcache.tags.tag_accesses          21007008                       # Number of tag accesses
system.cpu.dcache.tags.data_accesses         21007008                       # Number of data accesses
system.cpu.dcache.tags.power_state.pwrStateResidencyTicks::UNDEFINED 114303454000                       # Cumulative time (in ticks) in various power states
system.cpu.dtb.rdAccesses                     6725828                       # TLB accesses on read requests
system.cpu.dtb.wrAccesses                     3652612                       # TLB accesses on write requests
system.cpu.dtb.rdMisses                          1853                       # TLB misses on read requests
system.cpu.dtb.wrMisses                         35717                       # TLB misses on write requests
system.cpu.dtb.walker.power_state.pwrStateResidencyTicks::UNDEFINED 114303454000                       # Cumulative time (in ticks) in various power states
system.cpu.icache.demand_hits::.cpu.inst     43360246                       # number of demand (read+write) hits
system.cpu.icache.demand_hits::total         43360246                       # number of demand (read+write) hits
system.cpu.icache.overall_hits::.cpu.inst     43360246                       # number of overall hits
system.cpu.icache.overall_hits::total        43360246                       # number of overall hits
system.cpu.icache.demand_misses::.cpu.inst         1017                       # number of demand (read+write) misses
system.cpu.icache.demand_misses::total           1017                       # number of demand (read+write) misses
system.cpu.icache.overall_misses::.cpu.inst         1017                       # number of overall misses
system.cpu.icache.overall_misses::total          1017                       # number of overall misses
system.cpu.icache.demand_miss_latency::.cpu.inst     87576000                       # number of demand (read+write) miss cycles
system.cpu.icache.demand_miss_latency::total     87576000                       # number of demand (read+write) miss cycles
system.cpu.icache.overall_miss_latency::.cpu.inst     87576000                       # number of overall miss cycles
system.cpu.icache.overall_miss_latency::total     87576000                       # number of overall miss cycles
system.cpu.icache.demand_accesses::.cpu.inst     43361263                       # number of demand (read+write) accesses
system.cpu.icache.demand_accesses::total     43361263                       # number of demand (read+write) accesses
system.cpu.icache.overall_accesses::.cpu.inst     43361263                       # number of overall (read+write) accesses
system.cpu.icache.overall_accesses::total     43361263                       # number of overall (read+write) accesses
system.cpu.icache.demand_miss_rate::.cpu.inst     0.000023                       # miss rate for demand accesses
system.cpu.icache.demand_miss_rate::total     0.000023                       # miss rate for demand accesses
system.cpu.icache.overall_miss_rate::.cpu.inst     0.000023                       # miss rate for overall accesses
system.cpu.icache.overall_miss_rate::total     0.000023                       # miss rate for overall accesses
system.cpu.icache.demand_avg_miss_latency::.cpu.inst 86112.094395                       # average overall miss latency
system.cpu.icache.demand_avg_miss_latency::total 86112.094395                       # average overall miss latency
system.cpu.icache.overall_avg_miss_latency::.cpu.inst 86112.094395                       # average overall miss latency
system.cpu.icache.overall_avg_miss_latency::total 86112.094395                       # average overall miss latency
system.cpu.icache.blocked_cycles::no_mshrs            0                       # number of cycles access was blocked
system.cpu.icache.blocked_cycles::no_targets            0                       # number of cycles access was blocked
system.cpu.icache.blocked::no_mshrs                 0                       # number of cycles access was blocked
system.cpu.icache.blocked::no_targets               0                       # number of cycles access was blocked
system.cpu.icache.avg_blocked_cycles::no_mshrs          nan                       # average number of cycles each access was blocked
system.cpu.icache.avg_blocked_cycles::no_targets          nan                       # average number of cycles each access was blocked
system.cpu.icache.demand_mshr_misses::.cpu.inst         1017                       # number of demand (read+write) MSHR misses
system.cpu.icache.demand_mshr_misses::total         1017                       # number of demand (read+write) MSHR misses
system.cpu.icache.overall_mshr_misses::.cpu.inst         1017                       # number of overall MSHR misses
system.cpu.icache.overall_mshr_misses::total         1017                       # number of overall MSHR misses
system.cpu.icache.demand_mshr_miss_latency::.cpu.inst     85542000                       # number of demand (read+write) MSHR miss cycles
system.cpu.icache.demand_mshr_miss_latency::total     85542000                       # number of demand (read+write) MSHR miss cycles
system.cpu.icache.overall_mshr_miss_latency::.cpu.inst     85542000                       # number of overall MSHR miss cycles
system.cpu.icache.overall_mshr_miss_latency::total     85542000                       # number of overall MSHR miss cycles
system.cpu.icache.demand_mshr_miss_rate::.cpu.inst     0.000023                       # mshr miss rate for demand accesses
system.cpu.icache.demand_mshr_miss_rate::total     0.000023                       # mshr miss rate for demand accesses
system.cpu.icache.overall_mshr_miss_rate::.cpu.inst     0.000023                       # mshr miss rate for overall accesses
system.cpu.icache.overall_mshr_miss_rate::total     0.000023                       # mshr miss rate for overall accesses
system.cpu.icache.demand_avg_mshr_miss_latency::.cpu.inst 84112.094395                       # average overall mshr miss latency
system.cpu.icache.demand_avg_mshr_miss_latency::total 84112.094395                       # average overall mshr miss latency
system.cpu.icache.overall_avg_mshr_miss_latency::.cpu.inst 84112.094395                       # average overall mshr miss latency
system.cpu.icache.overall_avg_mshr_miss_latency::total 84112.094395                       # average overall mshr miss latency
system.cpu.icache.replacements                    762                       # number of replacements
system.cpu.icache.ReadReq_hits::.cpu.inst     43360246                       # number of ReadReq hits
system.cpu.icache.ReadReq_hits::total        43360246                       # number of ReadReq hits
system.cpu.icache.ReadReq_misses::.cpu.inst         1017                       # number of ReadReq misses
system.cpu.icache.ReadReq_misses::total          1017                       # number of ReadReq misses
system.cpu.icache.ReadReq_miss_latency::.cpu.inst     87576000                       # number of ReadReq miss cycles
system.cpu.icache.ReadReq_miss_latency::total     87576000                       # number of ReadReq miss cycles
system.cpu.icache.ReadReq_accesses::.cpu.inst     43361263                       # number of ReadReq accesses(hits+misses)
system.cpu.icache.ReadReq_accesses::total     43361263                       # number of ReadReq accesses(hits+misses)
system.cpu.icache.ReadReq_miss_rate::.cpu.inst     0.000023                       # miss rate for ReadReq accesses
system.cpu.icache.ReadReq_miss_rate::total     0.000023                       # miss rate for ReadReq accesses
system.cpu.icache.ReadReq_avg_miss_latency::.cpu.inst 86112.094395                       # average ReadReq miss latency
system.cpu.icache.ReadReq_avg_miss_latency::total 86112.094395                       # average ReadReq miss latency
system.cpu.icache.ReadReq_mshr_misses::.cpu.inst         1017                       # number of ReadReq MSHR misses
system.cpu.icache.ReadReq_mshr_misses::total         1017                       # number of ReadReq MSHR misses
system.cpu.icache.ReadReq_mshr_miss_latency::.cpu.inst     85542000                       # number of ReadReq MSHR miss cycles
system.cpu.icache.ReadReq_mshr_miss_latency::total     85542000                       # number of ReadReq MSHR miss cycles
system.cpu.icache.ReadReq_mshr_miss_rate::.cpu.inst     0.000023                       # mshr miss rate for ReadReq accesses
system.cpu.icache.ReadReq_mshr_miss_rate::total     0.000023                       # mshr miss rate for ReadReq accesses
system.cpu.icache.ReadReq_avg_mshr_miss_latency::.cpu.inst 84112.094395                       # average ReadReq mshr miss latency
system.cpu.icache.ReadReq_avg_mshr_miss_latency::total 84112.094395                       # average ReadReq mshr miss latency
system.cpu.icache.power_state.pwrStateResidencyTicks::UNDEFINED 114303454000                       # Cumulative time (in ticks) in various power states
system.cpu.icache.tags.tagsinuse           253.904004                       # Cycle average of tags in use
system.cpu.icache.tags.total_refs            43361263                       # Total number of references to valid blocks.
system.cpu.icache.tags.sampled_refs              1017                       # Sample count of references to valid blocks.
system.cpu.icache.tags.avg_refs          42636.443461                       # Average number of references to valid blocks.
system.cpu.icache.tags.warmup_cycle            107000                       # Cycle when the warmup percentage was hit.
system.cpu.icache.tags.occ_blocks::.cpu.inst   253.904004                       # Average occupied blocks per requestor
system.cpu.icache.tags.occ_percent::.cpu.inst     0.991813                       # Average percentage of cache occupancy
system.cpu.icache.tags.occ_percent::total     0.991813                       # Average percentage of cache occupancy
system.cpu.icache.tags.occ_task_id_blocks::1024          255                       # Occupied blocks per task id
system.cpu.icache.tags.age_task_id_blocks_1024::0           52                       # Occupied blocks per task id
system.cpu.icache.tags.age_task_id_blocks_1024::1          125                       # Occupied blocks per task id
system.cpu.icache.tags.age_task_id_blocks_1024::2            9                       # Occupied blocks per task id
system.cpu.icache.tags.age_task_id_blocks_1024::4           69                       # Occupied blocks per task id
system.cpu.icache.tags.occ_task_id_percent::1024     0.996094                       # Percentage of cache occupancy per task id
system.cpu.icache.tags.tag_accesses          86723543                       # Number of tag accesses
system.cpu.icache.tags.data_accesses         86723543                       # Number of data accesses
system.cpu.icache.tags.power_state.pwrStateResidencyTicks::UNDEFINED 114303454000                       # Cumulative time (in ticks) in various power states
system.cpu.interrupts.clk_domain.clock          16000                       # Clock period in ticks
system.cpu.itb.rdAccesses                           0                       # TLB accesses on read requests
system.cpu.itb.wrAccesses                    43361263                       # TLB accesses on write requests
system.cpu.itb.rdMisses                             0                       # TLB misses on read requests
system.cpu.itb.wrMisses                            59                       # TLB misses on write requests
system.cpu.itb.walker.power_state.pwrStateResidencyTicks::UNDEFINED 114303454000                       # Cumulative time (in ticks) in various power states
system.cpu.power_state.pwrStateResidencyTicks::ON 114303454000                       # Cumulative time (in ticks) in various power states
system.cpu.thread_0.numInsts                        0                       # Number of Instructions committed
system.cpu.thread_0.numOps                          0                       # Number of Ops committed
system.cpu.thread_0.numMemRefs                      0                       # Number of Memory References
system.l2bus.trans_dist::ReadResp              147193                       # Transaction distribution
system.l2bus.trans_dist::WritebackDirty        248986                       # Transaction distribution
system.l2bus.trans_dist::CleanEvict              1010                       # Transaction distribution
system.l2bus.trans_dist::ReadExReq             103960                       # Transaction distribution
system.l2bus.trans_dist::ReadExResp            103960                       # Transaction distribution
system.l2bus.trans_dist::ReadSharedReq         147193                       # Transaction distribution
system.l2bus.pkt_count_system.cpu.icache.mem_side_port::system.l2cache.cpu_side_port         2796                       # Packet count per connected requestor and responder (bytes)
system.l2bus.pkt_count_system.cpu.dcache.mem_side_port::system.l2cache.cpu_side_port       749384                       # Packet count per connected requestor and responder (bytes)
system.l2bus.pkt_count::total                  752180                       # Packet count per connected requestor and responder (bytes)
system.l2bus.pkt_size_system.cpu.icache.mem_side_port::system.l2cache.cpu_side_port        65088                       # Cumulative packet size per connected requestor and responder (bytes)
system.l2bus.pkt_size_system.cpu.dcache.mem_side_port::system.l2cache.cpu_side_port     31943808                       # Cumulative packet size per connected requestor and responder (bytes)
system.l2bus.pkt_size::total                 32008896                       # Cumulative packet size per connected requestor and responder (bytes)
system.l2bus.snoops                               122                       # Total snoops (count)
system.l2bus.snoopTraffic                           0                       # Total snoop traffic (bytes)
system.l2bus.snoop_fanout::samples             251275                       # Request fanout histogram
system.l2bus.snoop_fanout::mean              0.000486                       # Request fanout histogram
system.l2bus.snoop_fanout::stdev             0.022029                       # Request fanout histogram
system.l2bus.snoop_fanout::underflows               0      0.00%      0.00% # Request fanout histogram
system.l2bus.snoop_fanout::0                   251153     99.95%     99.95% # Request fanout histogram
system.l2bus.snoop_fanout::1                      122      0.05%    100.00% # Request fanout histogram
system.l2bus.snoop_fanout::2                        0      0.00%    100.00% # Request fanout histogram
system.l2bus.snoop_fanout::overflows                0      0.00%    100.00% # Request fanout histogram
system.l2bus.snoop_fanout::min_value                0                       # Request fanout histogram
system.l2bus.snoop_fanout::max_value                1                       # Request fanout histogram
system.l2bus.snoop_fanout::total               251275                       # Request fanout histogram
system.l2bus.power_state.pwrStateResidencyTicks::UNDEFINED 114303454000                       # Cumulative time (in ticks) in various power states
system.l2bus.reqLayer0.occupancy            998999000                       # Layer occupancy (ticks)
system.l2bus.reqLayer0.utilization                0.9                       # Layer utilization (%)
system.l2bus.respLayer0.occupancy             3051000                       # Layer occupancy (ticks)
system.l2bus.respLayer0.utilization               0.0                       # Layer utilization (%)
system.l2bus.respLayer1.occupancy           750408000                       # Layer occupancy (ticks)
system.l2bus.respLayer1.utilization               0.7                       # Layer utilization (%)
system.l2cache.demand_hits::.cpu.inst             225                       # number of demand (read+write) hits
system.l2cache.demand_hits::.cpu.data          241426                       # number of demand (read+write) hits
system.l2cache.demand_hits::total              241651                       # number of demand (read+write) hits
system.l2cache.overall_hits::.cpu.inst            225                       # number of overall hits
system.l2cache.overall_hits::.cpu.data         241426                       # number of overall hits
system.l2cache.overall_hits::total             241651                       # number of overall hits
system.l2cache.demand_misses::.cpu.inst           792                       # number of demand (read+write) misses
system.l2cache.demand_misses::.cpu.data          8710                       # number of demand (read+write) misses
system.l2cache.demand_misses::total              9502                       # number of demand (read+write) misses
system.l2cache.overall_misses::.cpu.inst          792                       # number of overall misses
system.l2cache.overall_misses::.cpu.data         8710                       # number of overall misses
system.l2cache.overall_misses::total             9502                       # number of overall misses
system.l2cache.demand_miss_latency::.cpu.inst     77761000                       # number of demand (read+write) miss cycles
system.l2cache.demand_miss_latency::.cpu.data    925942000                       # number of demand (read+write) miss cycles
system.l2cache.demand_miss_latency::total   1003703000                       # number of demand (read+write) miss cycles
system.l2cache.overall_miss_latency::.cpu.inst     77761000                       # number of overall miss cycles
system.l2cache.overall_miss_latency::.cpu.data    925942000                       # number of overall miss cycles
system.l2cache.overall_miss_latency::total   1003703000                       # number of overall miss cycles
system.l2cache.demand_accesses::.cpu.inst         1017                       # number of demand (read+write) accesses
system.l2cache.demand_accesses::.cpu.data       250136                       # number of demand (read+write) accesses
system.l2cache.demand_accesses::total          251153                       # number of demand (read+write) accesses
system.l2cache.overall_accesses::.cpu.inst         1017                       # number of overall (read+write) accesses
system.l2cache.overall_accesses::.cpu.data       250136                       # number of overall (read+write) accesses
system.l2cache.overall_accesses::total         251153                       # number of overall (read+write) accesses
system.l2cache.demand_miss_rate::.cpu.inst     0.778761                       # miss rate for demand accesses
system.l2cache.demand_miss_rate::.cpu.data     0.034821                       # miss rate for demand accesses
system.l2cache.demand_miss_rate::total       0.037834                       # miss rate for demand accesses
system.l2cache.overall_miss_rate::.cpu.inst     0.778761                       # miss rate for overall accesses
system.l2cache.overall_miss_rate::.cpu.data     0.034821                       # miss rate for overall accesses
system.l2cache.overall_miss_rate::total      0.037834                       # miss rate for overall accesses
system.l2cache.demand_avg_miss_latency::.cpu.inst 98183.080808                       # average overall miss latency
system.l2cache.demand_avg_miss_latency::.cpu.data 106307.921929                       # average overall miss latency
system.l2cache.demand_avg_miss_latency::total 105630.709324                       # average overall miss latency
system.l2cache.overall_avg_miss_latency::.cpu.inst 98183.080808                       # average overall miss latency
system.l2cache.overall_avg_miss_latency::.cpu.data 106307.921929                       # average overall miss latency
system.l2cache.overall_avg_miss_latency::total 105630.709324                       # average overall miss latency
system.l2cache.blocked_cycles::no_mshrs             0                       # number of cycles access was blocked
system.l2cache.blocked_cycles::no_targets            0                       # number of cycles access was blocked
system.l2cache.blocked::no_mshrs                    0                       # number of cycles access was blocked
system.l2cache.blocked::no_targets                  0                       # number of cycles access was blocked
system.l2cache.avg_blocked_cycles::no_mshrs          nan                       # average number of cycles each access was blocked
system.l2cache.avg_blocked_cycles::no_targets          nan                       # average number of cycles each access was blocked
system.l2cache.demand_mshr_misses::.cpu.inst          792                       # number of demand (read+write) MSHR misses
system.l2cache.demand_mshr_misses::.cpu.data         8710                       # number of demand (read+write) MSHR misses
system.l2cache.demand_mshr_misses::total         9502                       # number of demand (read+write) MSHR misses
system.l2cache.overall_mshr_misses::.cpu.inst          792                       # number of overall MSHR misses
system.l2cache.overall_mshr_misses::.cpu.data         8710                       # number of overall MSHR misses
system.l2cache.overall_mshr_misses::total         9502                       # number of overall MSHR misses
system.l2cache.demand_mshr_miss_latency::.cpu.inst     61921000                       # number of demand (read+write) MSHR miss cycles
system.l2cache.demand_mshr_miss_latency::.cpu.data    751742000                       # number of demand (read+write) MSHR miss cycles
system.l2cache.demand_mshr_miss_latency::total    813663000                       # number of demand (read+write) MSHR miss cycles
system.l2cache.overall_mshr_miss_latency::.cpu.inst     61921000                       # number of overall MSHR miss cycles
system.l2cache.overall_mshr_miss_latency::.cpu.data    751742000                       # number of overall MSHR miss cycles
system.l2cache.overall_mshr_miss_latency::total    813663000                       # number of overall MSHR miss cycles
system.l2cache.demand_mshr_miss_rate::.cpu.inst     0.778761                       # mshr miss rate for demand accesses
system.l2cache.demand_mshr_miss_rate::.cpu.data     0.034821                       # mshr miss rate for demand accesses
system.l2cache.demand_mshr_miss_rate::total     0.037834                       # mshr miss rate for demand accesses
system.l2cache.overall_mshr_miss_rate::.cpu.inst     0.778761                       # mshr miss rate for overall accesses
system.l2cache.overall_mshr_miss_rate::.cpu.data     0.034821                       # mshr miss rate for overall accesses
system.l2cache.overall_mshr_miss_rate::total     0.037834                       # mshr miss rate for overall accesses
system.l2cache.demand_avg_mshr_miss_latency::.cpu.inst 78183.080808                       # average overall mshr miss latency
system.l2cache.demand_avg_mshr_miss_latency::.cpu.data 86307.921929                       # average overall mshr miss latency
system.l2cache.demand_avg_mshr_miss_latency::total 85630.709324                       # average overall mshr miss latency
system.l2cache.overall_avg_mshr_miss_latency::.cpu.inst 78183.080808                       # average overall mshr miss latency
system.l2cache.overall_avg_mshr_miss_latency::.cpu.data 86307.921929                       # average overall mshr miss latency
system.l2cache.overall_avg_mshr_miss_latency::total 85630.709324                       # average overall mshr miss latency
system.l2cache.replacements                         0                       # number of replacements
system.l2cache.WritebackDirty_hits::.writebacks       248985                       # number of WritebackDirty hits
system.l2cache.WritebackDirty_hits::total       248985                       # number of WritebackDirty hits
system.l2cache.WritebackDirty_misses::.writebacks            1                       # number of WritebackDirty misses
system.l2cache.WritebackDirty_misses::total            1                       # number of WritebackDirty misses
system.l2cache.WritebackDirty_accesses::.writebacks       248986                       # number of WritebackDirty accesses(hits+misses)
system.l2cache.WritebackDirty_accesses::total       248986                       # number of WritebackDirty accesses(hits+misses)
system.l2cache.WritebackDirty_miss_rate::.writebacks     0.000004                       # miss rate for WritebackDirty accesses
system.l2cache.WritebackDirty_miss_rate::total     0.000004                       # miss rate for WritebackDirty accesses
system.l2cache.WritebackDirty_mshr_misses::.writebacks            1                       # number of WritebackDirty MSHR misses
system.l2cache.WritebackDirty_mshr_misses::total            1                       # number of WritebackDirty MSHR misses
system.l2cache.WritebackDirty_mshr_miss_rate::.writebacks     0.000004                       # mshr miss rate for WritebackDirty accesses
system.l2cache.WritebackDirty_mshr_miss_rate::total     0.000004                       # mshr miss rate for WritebackDirty accesses
system.l2cache.CleanEvict_mshr_misses::.writebacks           30                       # number of CleanEvict MSHR misses
system.l2cache.CleanEvict_mshr_misses::total           30                       # number of CleanEvict MSHR misses
system.l2cache.CleanEvict_mshr_miss_rate::.writebacks          inf                       # mshr miss rate for CleanEvict accesses
system.l2cache.CleanEvict_mshr_miss_rate::total          inf                       # mshr miss rate for CleanEvict accesses
system.l2cache.ReadExReq_hits::.cpu.data        95423                       # number of ReadExReq hits
system.l2cache.ReadExReq_hits::total            95423                       # number of ReadExReq hits
system.l2cache.ReadExReq_misses::.cpu.data         8537                       # number of ReadExReq misses
system.l2cache.ReadExReq_misses::total           8537                       # number of ReadExReq misses
system.l2cache.ReadExReq_miss_latency::.cpu.data    908448000                       # number of ReadExReq miss cycles
system.l2cache.ReadExReq_miss_latency::total    908448000                       # number of ReadExReq miss cycles
system.l2cache.ReadExReq_accesses::.cpu.data       103960                       # number of ReadExReq accesses(hits+misses)
system.l2cache.ReadExReq_accesses::total       103960                       # number of ReadExReq accesses(hits+misses)
system.l2cache.ReadExReq_miss_rate::.cpu.data     0.082118                       # miss rate for ReadExReq accesses
system.l2cache.ReadExReq_miss_rate::total     0.082118                       # miss rate for ReadExReq accesses
system.l2cache.ReadExReq_avg_miss_latency::.cpu.data 106413.025653                       # average ReadExReq miss latency
system.l2cache.ReadExReq_avg_miss_latency::total 106413.025653                       # average ReadExReq miss latency
system.l2cache.ReadExReq_mshr_misses::.cpu.data         8537                       # number of ReadExReq MSHR misses
system.l2cache.ReadExReq_mshr_misses::total         8537                       # number of ReadExReq MSHR misses
system.l2cache.ReadExReq_mshr_miss_latency::.cpu.data    737708000                       # number of ReadExReq MSHR miss cycles
system.l2cache.ReadExReq_mshr_miss_latency::total    737708000                       # number of ReadExReq MSHR miss cycles
system.l2cache.ReadExReq_mshr_miss_rate::.cpu.data     0.082118                       # mshr miss rate for ReadExReq accesses
system.l2cache.ReadExReq_mshr_miss_rate::total     0.082118                       # mshr miss rate for ReadExReq accesses
system.l2cache.ReadExReq_avg_mshr_miss_latency::.cpu.data 86413.025653                       # average ReadExReq mshr miss latency
system.l2cache.ReadExReq_avg_mshr_miss_latency::total 86413.025653                       # average ReadExReq mshr miss latency
system.l2cache.ReadSharedReq_hits::.cpu.inst          225                       # number of ReadSharedReq hits
system.l2cache.ReadSharedReq_hits::.cpu.data       146003                       # number of ReadSharedReq hits
system.l2cache.ReadSharedReq_hits::total       146228                       # number of ReadSharedReq hits
system.l2cache.ReadSharedReq_misses::.cpu.inst          792                       # number of ReadSharedReq misses
system.l2cache.ReadSharedReq_misses::.cpu.data          173                       # number of ReadSharedReq misses
system.l2cache.ReadSharedReq_misses::total          965                       # number of ReadSharedReq misses
system.l2cache.ReadSharedReq_miss_latency::.cpu.inst     77761000                       # number of ReadSharedReq miss cycles
system.l2cache.ReadSharedReq_miss_latency::.cpu.data     17494000                       # number of ReadSharedReq miss cycles
system.l2cache.ReadSharedReq_miss_latency::total     95255000                       # number of ReadSharedReq miss cycles
system.l2cache.ReadSharedReq_accesses::.cpu.inst         1017                       # number of ReadSharedReq accesses(hits+misses)
system.l2cache.ReadSharedReq_accesses::.cpu.data       146176                       # number of ReadSharedReq accesses(hits+misses)
system.l2cache.ReadSharedReq_accesses::total       147193                       # number of ReadSharedReq accesses(hits+misses)
system.l2cache.ReadSharedReq_miss_rate::.cpu.inst     0.778761                       # miss rate for ReadSharedReq accesses
system.l2cache.ReadSharedReq_miss_rate::.cpu.data     0.001184                       # miss rate for ReadSharedReq accesses
system.l2cache.ReadSharedReq_miss_rate::total     0.006556                       # miss rate for ReadSharedReq accesses
system.l2cache.ReadSharedReq_avg_miss_latency::.cpu.inst 98183.080808                       # average ReadSharedReq miss latency
system.l2cache.ReadSharedReq_avg_miss_latency::.cpu.data 101121.387283                       # average ReadSharedReq miss latency
system.l2cache.ReadSharedReq_avg_miss_latency::total 98709.844560                       # average ReadSharedReq miss latency
system.l2cache.ReadSharedReq_mshr_misses::.cpu.inst          792                       # number of ReadSharedReq MSHR misses
system.l2cache.ReadSharedReq_mshr_misses::.cpu.data          173                       # number of ReadSharedReq MSHR misses
system.l2cache.ReadSharedReq_mshr_misses::total          965                       # number of ReadSharedReq MSHR misses
system.l2cache.ReadSharedReq_mshr_miss_latency::.cpu.inst     61921000                       # number of ReadSharedReq MSHR miss cycles
system.l2cache.ReadSharedReq_mshr_miss_latency::.cpu.data     14034000                       # number of ReadSharedReq MSHR miss cycles
system.l2cache.ReadSharedReq_mshr_miss_latency::total     75955000                       # number of ReadSharedReq MSHR miss cycles
system.l2cache.ReadSharedReq_mshr_miss_rate::.cpu.inst     0.778761                       # mshr miss rate for ReadSharedReq accesses
system.l2cache.ReadSharedReq_mshr_miss_rate::.cpu.data     0.001184                       # mshr miss rate for ReadSharedReq accesses
system.l2cache.ReadSharedReq_mshr_miss_rate::total     0.006556                       # mshr miss rate for ReadSharedReq accesses
system.l2cache.ReadSharedReq_avg_mshr_miss_latency::.cpu.inst 78183.080808                       # average ReadSharedReq mshr miss latency
system.l2cache.ReadSharedReq_avg_mshr_miss_latency::.cpu.data 81121.387283                       # average ReadSharedReq mshr miss latency
system.l2cache.ReadSharedReq_avg_mshr_miss_latency::total 78709.844560                       # average ReadSharedReq mshr miss latency
system.l2cache.power_state.pwrStateResidencyTicks::UNDEFINED 114303454000                       # Cumulative time (in ticks) in various power states
system.l2cache.replacement_policy.totalBypasses          123                       # Total number of cache bypasses
system.l2cache.replacement_policy.effectiveBypasses            0                       # Bypasses that correctly skipped non-reused blocks
system.l2cache.replacement_policy.ineffectiveBypasses          106                       # Bypasses that incorrectly skipped requested blocks
system.l2cache.replacement_policy.virtualEffectiveBypasses            0                       # Virtual bypasses correctly predicting non-reused blocks
system.l2cache.replacement_policy.virtualIneffectiveBypasses          422                       # Virtual bypasses incorrectly predicting requested blocks
system.l2cache.tags.tagsinuse             6460.038098                       # Cycle average of tags in use
system.l2cache.tags.total_refs                 500874                       # Total number of references to valid blocks.
system.l2cache.tags.sampled_refs                 9470                       # Sample count of references to valid blocks.
system.l2cache.tags.avg_refs                52.890602                       # Average number of references to valid blocks.
system.l2cache.tags.warmup_cycle                86000                       # Cycle when the warmup percentage was hit.
system.l2cache.tags.occ_blocks::.writebacks    59.254578                       # Average occupied blocks per requestor
system.l2cache.tags.occ_blocks::.cpu.inst   537.308502                       # Average occupied blocks per requestor
system.l2cache.tags.occ_blocks::.cpu.data  5863.475018                       # Average occupied blocks per requestor
system.l2cache.tags.occ_percent::.writebacks     0.003617                       # Average percentage of cache occupancy
system.l2cache.tags.occ_percent::.cpu.inst     0.032795                       # Average percentage of cache occupancy
system.l2cache.tags.occ_percent::.cpu.data     0.357878                       # Average percentage of cache occupancy
system.l2cache.tags.occ_percent::total       0.394289                       # Average percentage of cache occupancy
system.l2cache.tags.occ_task_id_blocks::1024         9470                       # Occupied blocks per task id
system.l2cache.tags.age_task_id_blocks_1024::0           60                       # Occupied blocks per task id
system.l2cache.tags.age_task_id_blocks_1024::1          191                       # Occupied blocks per task id
system.l2cache.tags.age_task_id_blocks_1024::2           24                       # Occupied blocks per task id
system.l2cache.tags.age_task_id_blocks_1024::3            3                       # Occupied blocks per task id
system.l2cache.tags.age_task_id_blocks_1024::4         9192                       # Occupied blocks per task id
system.l2cache.tags.occ_task_id_percent::1024     0.578003                       # Percentage of cache occupancy per task id
system.l2cache.tags.tag_accesses              4017686                       # Number of tag accesses
system.l2cache.tags.data_accesses             4017686                       # Number of data accesses
system.l2cache.tags.power_state.pwrStateResidencyTicks::UNDEFINED 114303454000                       # Cumulative time (in ticks) in various power states
system.mem_ctrl.avgPriority_.writebacks::samples         1.00                       # Average QoS priority value for accepted requests
system.mem_ctrl.avgPriority_.cpu.inst::samples       792.00                       # Average QoS priority value for accepted requests
system.mem_ctrl.avgPriority_.cpu.data::samples      8709.00                       # Average QoS priority value for accepted requests
system.mem_ctrl.priorityMinLatency       0.000000018750                       # per QoS priority minimum request to response latency (s)
system.mem_ctrl.priorityMaxLatency       0.000000576500                       # per QoS priority maximum request to response latency (s)
system.mem_ctrl.numReadWriteTurnArounds             0                       # Number of turnarounds from READ to WRITE
system.mem_ctrl.numWriteReadTurnArounds             0                       # Number of turnarounds from WRITE to READ
system.mem_ctrl.numStayReadState                48363                       # Number of times bus staying in READ state
system.mem_ctrl.numStayWriteState                   0                       # Number of times bus staying in WRITE state
system.mem_ctrl.readReqs                         9502                       # Number of read requests accepted
system.mem_ctrl.writeReqs                           1                       # Number of write requests accepted
system.mem_ctrl.readBursts                       9502                       # Number of controller read bursts, including those serviced by the write queue
system.mem_ctrl.writeBursts                         1                       # Number of controller write bursts, including those merged in the write queue
system.mem_ctrl.servicedByWrQ                       1                       # Number of controller read bursts serviced by the write queue
system.mem_ctrl.mergedWrBursts                      0                       # Number of controller write bursts merged with an existing one
system.mem_ctrl.neitherReadNorWriteReqs             0                       # Number of requests that are neither read nor write
system.mem_ctrl.avgRdQLen                        1.00                       # Average read queue length when enqueuing
system.mem_ctrl.avgWrQLen                        0.59                       # Average write queue length when enqueuing
system.mem_ctrl.numRdRetry                          0                       # Number of times read queue was full causing retry
system.mem_ctrl.numWrRetry                          0                       # Number of times write queue was full causing retry
system.mem_ctrl.readPktSize::0                      0                       # Read request sizes (log2)
system.mem_ctrl.readPktSize::1                      0                       # Read request sizes (log2)
system.mem_ctrl.readPktSize::2                      0                       # Read request sizes (log2)
system.mem_ctrl.readPktSize::3                      0                       # Read request sizes (log2)
system.mem_ctrl.readPktSize::4                      0                       # Read request sizes (log2)
system.mem_ctrl.readPktSize::5                      0                       # Read request sizes (log2)
system.mem_ctrl.readPktSize::6                   9502                       # Read request sizes (log2)
system.mem_ctrl.writePktSize::0                     0                       # Write request sizes (log2)
system.mem_ctrl.writePktSize::1                     0                       # Write request sizes (log2)
system.mem_ctrl.writePktSize::2                     0                       # Write request sizes (log2)
system.mem_ctrl.writePktSize::3                     0                       # Write request sizes (log2)
system.mem_ctrl.writePktSize::4                     0                       # Write request sizes (log2)
system.mem_ctrl.writePktSize::5                     0                       # Write request sizes (log2)
system.mem_ctrl.writePktSize::6                     1                       # Write request sizes (log2)
system.mem_ctrl.rdQLenPdf::0                     9500                       # What read queue length does an incoming req see
system.mem_ctrl.rdQLenPdf::1                        1                       # What read queue length does an incoming req see
system.mem_ctrl.rdQLenPdf::2                        0                       # What read queue length does an incoming req see
system.mem_ctrl.rdQLenPdf::3                        0                       # What read queue length does an incoming req see
system.mem_ctrl.rdQLenPdf::4                        0                       # What read queue length does an incoming req see
system.mem_ctrl.rdQLenPdf::5                        0                       # What read queue length does an incoming req see
system.mem_ctrl.rdQLenPdf::6                        0                       # What read queue length does an incoming req see
system.mem_ctrl.rdQLenPdf::7                        0                       # What read queue length does an incoming req see
system.mem_ctrl.rdQLenPdf::8                        0                       # What read queue length does an incoming req see
system.mem_ctrl.rdQLenPdf::9                        0                       # What read queue length does an incoming req see
system.mem_ctrl.rdQLenPdf::10                       0                       # What read queue length does an incoming req see
system.mem_ctrl.rdQLenPdf::11                       0                       # What read queue length does an incoming req see
system.mem_ctrl.rdQLenPdf::12                       0                       # What read queue length does an incoming req see
system.mem_ctrl.rdQLenPdf::13                       0                       # What read queue length does an incoming req see
system.mem_ctrl.rdQLenPdf::14                       0                       # What read queue length does an incoming req see
system.mem_ctrl.rdQLenPdf::15                       0                       # What read queue length does an incoming req see
system.mem_ctrl.rdQLenPdf::16                       0                       # What read queue length does an incoming req see
system.mem_ctrl.rdQLenPdf::17                       0                       # What read queue length does an incoming req see
system.mem_ctrl.rdQLenPdf::18                       0                       # What read queue length does an incoming req see
system.mem_ctrl.rdQLenPdf::19                       0                       # What read queue length does an incoming req see
system.mem_ctrl.rdQLenPdf::20                       0                       # What read queue length does an incoming req see
system.mem_ctrl.rdQLenPdf::21                       0                       # What read queue length does an incoming req see
system.mem_ctrl.rdQLenPdf::22                       0                       # What read queue length does an incoming req see
system.mem_ctrl.rdQLenPdf::23                       0                       # What read queue length does an incoming req see
system.mem_ctrl.rdQLenPdf::24                       0                       # What read queue length does an incoming req see
system.mem_ctrl.rdQLenPdf::25                       0                       # What read queue length does an incoming req see
system.mem_ctrl.rdQLenPdf::26                       0                       # What read queue length does an incoming req see
system.mem_ctrl.rdQLenPdf::27                       0                       # What read queue length does an incoming req see
system.mem_ctrl.rdQLenPdf::28                       0                       # What read queue length does an incoming req see
system.mem_ctrl.rdQLenPdf::29                       0                       # What read queue length does an incoming req see
system.mem_ctrl.rdQLenPdf::30                       0                       # What read queue length does an incoming req see
system.mem_ctrl.rdQLenPdf::31                       0                       # What read queue length does an incoming req see
system.mem_ctrl.wrQLenPdf::0                        1                       # What write queue length does an incoming req see
system.mem_ctrl.wrQLenPdf::1                        0                       # What write queue length does an incoming req see
system.mem_ctrl.wrQLenPdf::2                        0                       # What write queue length does an incoming req see
system.mem_ctrl.wrQLenPdf::3                        0                       # What write queue length does an incoming req see
system.mem_ctrl.wrQLenPdf::4                        0                       # What write queue length does an incoming req see
system.mem_ctrl.wrQLenPdf::5                        0                       # What write queue length does an incoming req see
system.mem_ctrl.wrQLenPdf::6                        0                       # What write queue length does an incoming req see
system.mem_ctrl.wrQLenPdf::7                        0                       # What write queue length does an incoming req see
system.mem_ctrl.wrQLenPdf::8                        0                       # What write queue length does an incoming req see
system.mem_ctrl.wrQLenPdf::9                        0                       # What write queue length does an incoming req see
system.mem_ctrl.wrQLenPdf::10                       0                       # What write queue length does an incoming req see
system.mem_ctrl.wrQLenPdf::11                       0                       # What write queue length does an incoming req see
system.mem_ctrl.wrQLenPdf::12                       0                       # What write queue length does an incoming req see
system.mem_ctrl.wrQLenPdf::13                       0                       # What write queue length does an incoming req see
system.mem_ctrl.wrQLenPdf::14                       0                       # What write queue length does an incoming req see
system.mem_ctrl.wrQLenPdf::15                       0                       # What write queue length does an incoming req see
system.mem_ctrl.wrQLenPdf::16                       0                       # What write queue length does an incoming req see
system.mem_ctrl.wrQLenPdf::17                       0                       # What write queue length does an incoming req see
system.mem_ctrl.wrQLenPdf::18                       0                       # What write queue length does an incoming req see
system.mem_ctrl.wrQLenPdf::19                       0                       # What write queue length does an incoming req see
system.mem_ctrl.wrQLenPdf::20                       0                       # What write queue length does an incoming req see
system.mem_ctrl.wrQLenPdf::21                       0                       # What write queue length does an incoming req see
system.mem_ctrl.wrQLenPdf::22                       0                       # What write queue length does an incoming req see
system.mem_ctrl.wrQLenPdf::23                       0                       # What write queue length does an incoming req see
system.mem_ctrl.wrQLenPdf::24                       0                       # What write queue length does an incoming req see
system.mem_ctrl.wrQLenPdf::25                       0                       # What write queue length does an incoming req see
system.mem_ctrl.wrQLenPdf::26                       0                       # What write queue length does an incoming req see
system.mem_ctrl.wrQLenPdf::27                       0                       # What write queue length does an incoming req see
system.mem_ctrl.wrQLenPdf::28                       0                       # What write queue length does an incoming req see
system.mem_ctrl.wrQLenPdf::29                       0                       # What write queue length does an incoming req see
system.mem_ctrl.wrQLenPdf::30                       0                       # What write queue length does an incoming req see
system.mem_ctrl.wrQLenPdf::31                       0                       # What write queue length does an incoming req see
system.mem_ctrl.wrQLenPdf::32                       0                       # What write queue length does an incoming req see
system.mem_ctrl.wrQLenPdf::33                       0                       # What write queue length does an incoming req see
system.mem_ctrl.wrQLenPdf::34                       0                       # What write queue length does an incoming req see
system.mem_ctrl.wrQLenPdf::35                       0                       # What write queue length does an incoming req see
system.mem_ctrl.wrQLenPdf::36                       0                       # What write queue length does an incoming req see
system.mem_ctrl.wrQLenPdf::37                       0                       # What write queue length does an incoming req see
system.mem_ctrl.wrQLenPdf::38                       0                       # What write queue length does an incoming req see
system.mem_ctrl.wrQLenPdf::39                       0                       # What write queue length does an incoming req see
system.mem_ctrl.wrQLenPdf::40                       0                       # What write queue length does an incoming req see
system.mem_ctrl.wrQLenPdf::41                       0                       # What write queue length does an incoming req see
system.mem_ctrl.wrQLenPdf::42                       0                       # What write queue length does an incoming req see
system.mem_ctrl.wrQLenPdf::43                       0                       # What write queue length does an incoming req see
system.mem_ctrl.wrQLenPdf::44                       0                       # What write queue length does an incoming req see
system.mem_ctrl.wrQLenPdf::45                       0                       # What write queue length does an incoming req see
system.mem_ctrl.wrQLenPdf::46                       0                       # What write queue length does an incoming req see
system.mem_ctrl.wrQLenPdf::47                       0                       # What write queue length does an incoming req see
system.mem_ctrl.wrQLenPdf::48                       0                       # What write queue length does an incoming req see
system.mem_ctrl.wrQLenPdf::49                       0                       # What write queue length does an incoming req see
system.mem_ctrl.wrQLenPdf::50                       0                       # What write queue length does an incoming req see
system.mem_ctrl.wrQLenPdf::51                       0                       # What write queue length does an incoming req see
system.mem_ctrl.wrQLenPdf::52                       0                       # What write queue length does an incoming req see
system.mem_ctrl.wrQLenPdf::53                       0                       # What write queue length does an incoming req see
system.mem_ctrl.wrQLenPdf::54                       0                       # What write queue length does an incoming req see
system.mem_ctrl.wrQLenPdf::55                       0                       # What write queue length does an incoming req see
system.mem_ctrl.wrQLenPdf::56                       0                       # What write queue length does an incoming req see
system.mem_ctrl.wrQLenPdf::57                       0                       # What write queue length does an incoming req see
system.mem_ctrl.wrQLenPdf::58                       0                       # What write queue length does an incoming req see
system.mem_ctrl.wrQLenPdf::59                       0                       # What write queue length does an incoming req see
system.mem_ctrl.wrQLenPdf::60                       0                       # What write queue length does an incoming req see
system.mem_ctrl.wrQLenPdf::61                       0                       # What write queue length does an incoming req see
system.mem_ctrl.wrQLenPdf::62                       0                       # What write queue length does an incoming req see
system.mem_ctrl.wrQLenPdf::63                       0                       # What write queue length does an incoming req see
system.mem_ctrl.bytesReadWrQ                       64                       # Total number of bytes read from write queue
system.mem_ctrl.bytesReadSys                   608128                       # Total read bytes from the system interface side
system.mem_ctrl.bytesWrittenSys                    64                       # Total written bytes from the system interface side
system.mem_ctrl.avgRdBWSys                       5.32                       # Average system read bandwidth in MiByte/s
system.mem_ctrl.avgWrBWSys                       0.00                       # Average system write bandwidth in MiByte/s
system.mem_ctrl.totGap                   114303323000                       # Total gap between requests
system.mem_ctrl.avgGap                    12028130.38                       # Average gap between requests
system.mem_ctrl.requestorReadBytes::.cpu.inst        50688                       # Per-requestor bytes read from memory
system.mem_ctrl.requestorReadBytes::.cpu.data       557376                       # Per-requestor bytes read from memory
system.mem_ctrl.requestorReadRate::.cpu.inst 443451.166401323280                       # Per-requestor bytes read from memory rate (Bytes/sec)
system.mem_ctrl.requestorReadRate::.cpu.data 4876283.091147884727                       # Per-requestor bytes read from memory rate (Bytes/sec)
system.mem_ctrl.requestorReadAccesses::.cpu.inst          792                       # Per-requestor read serviced memory accesses
system.mem_ctrl.requestorReadAccesses::.cpu.data         8710                       # Per-requestor read serviced memory accesses
system.mem_ctrl.requestorWriteAccesses::.writebacks            1                       # Per-requestor write serviced memory accesses
system.mem_ctrl.requestorReadTotalLat::.cpu.inst     21275500                       # Per-requestor read total memory access latency
system.mem_ctrl.requestorReadTotalLat::.cpu.data    303281750                       # Per-requestor read total memory access latency
system.mem_ctrl.requestorReadAvgLat::.cpu.inst     26863.01                       # Per-requestor read average memory access latency
system.mem_ctrl.requestorReadAvgLat::.cpu.data     34819.95                       # Per-requestor read average memory access latency
system.mem_ctrl.requestorWriteAvgLat::.writebacks         0.00                       # Per-requestor write average memory access latency
system.mem_ctrl.dram.bytes_read::.cpu.inst        50688                       # Number of bytes read from this memory
system.mem_ctrl.dram.bytes_read::.cpu.data       557440                       # Number of bytes read from this memory
system.mem_ctrl.dram.bytes_read::total         608128                       # Number of bytes read from this memory
system.mem_ctrl.dram.bytes_inst_read::.cpu.inst        50688                       # Number of instructions bytes read from this memory
system.mem_ctrl.dram.bytes_inst_read::total        50688                       # Number of instructions bytes read from this memory
system.mem_ctrl.dram.bytes_written::.writebacks           64                       # Number of bytes written to this memory
system.mem_ctrl.dram.bytes_written::total           64                       # Number of bytes written to this memory
system.mem_ctrl.dram.num_reads::.cpu.inst          792                       # Number of read requests responded to by this memory
system.mem_ctrl.dram.num_reads::.cpu.data         8710                       # Number of read requests responded to by this memory
system.mem_ctrl.dram.num_reads::total            9502                       # Number of read requests responded to by this memory
system.mem_ctrl.dram.num_writes::.writebacks            1                       # Number of write requests responded to by this memory
system.mem_ctrl.dram.num_writes::total              1                       # Number of write requests responded to by this memory
system.mem_ctrl.dram.bw_read::.cpu.inst        443451                       # Total read bandwidth from this memory (bytes/s)
system.mem_ctrl.dram.bw_read::.cpu.data       4876843                       # Total read bandwidth from this memory (bytes/s)
system.mem_ctrl.dram.bw_read::total           5320294                       # Total read bandwidth from this memory (bytes/s)
system.mem_ctrl.dram.bw_inst_read::.cpu.inst       443451                       # Instruction read bandwidth from this memory (bytes/s)
system.mem_ctrl.dram.bw_inst_read::total       443451                       # Instruction read bandwidth from this memory (bytes/s)
system.mem_ctrl.dram.bw_write::.writebacks          560                       # Write bandwidth from this memory (bytes/s)
system.mem_ctrl.dram.bw_write::total              560                       # Write bandwidth from this memory (bytes/s)
system.mem_ctrl.dram.bw_total::.writebacks          560                       # Total bandwidth to/from this memory (bytes/s)
system.mem_ctrl.dram.bw_total::.cpu.inst       443451                       # Total bandwidth to/from this memory (bytes/s)
system.mem_ctrl.dram.bw_total::.cpu.data      4876843                       # Total bandwidth to/from this memory (bytes/s)
system.mem_ctrl.dram.bw_total::total          5320854                       # Total bandwidth to/from this memory (bytes/s)
system.mem_ctrl.dram.readBursts                  9501                       # Number of DRAM read bursts
system.mem_ctrl.dram.writeBursts                    0                       # Number of DRAM write bursts
system.mem_ctrl.dram.perBankRdBursts::0           697                       # Per bank write bursts
system.mem_ctrl.dram.perBankRdBursts::1           768                       # Per bank write bursts
system.mem_ctrl.dram.perBankRdBursts::2           660                       # Per bank write bursts
system.mem_ctrl.dram.perBankRdBursts::3           604                       # Per bank write bursts
system.mem_ctrl.dram.perBankRdBursts::4           530                       # Per bank write bursts
system.mem_ctrl.dram.perBankRdBursts::5           604                       # Per bank write bursts
system.mem_ctrl.dram.perBankRdBursts::6           595                       # Per bank write bursts
system.mem_ctrl.dram.perBankRdBursts::7           544                       # Per bank write bursts
system.mem_ctrl.dram.perBankRdBursts::8           545                       # Per bank write bursts
system.mem_ctrl.dram.perBankRdBursts::9           534                       # Per bank write bursts
system.mem_ctrl.dram.perBankRdBursts::10          518                       # Per bank write bursts
system.mem_ctrl.dram.perBankRdBursts::11          612                       # Per bank write bursts
system.mem_ctrl.dram.perBankRdBursts::12          571                       # Per bank write bursts
system.mem_ctrl.dram.perBankRdBursts::13          558                       # Per bank write bursts
system.mem_ctrl.dram.perBankRdBursts::14          571                       # Per bank write bursts
system.mem_ctrl.dram.perBankRdBursts::15          590                       # Per bank write bursts
system.mem_ctrl.dram.perBankWrBursts::0             0                       # Per bank write bursts
system.mem_ctrl.dram.perBankWrBursts::1             0                       # Per bank write bursts
system.mem_ctrl.dram.perBankWrBursts::2             0                       # Per bank write bursts
system.mem_ctrl.dram.perBankWrBursts::3             0                       # Per bank write bursts
system.mem_ctrl.dram.perBankWrBursts::4             0                       # Per bank write bursts
system.mem_ctrl.dram.perBankWrBursts::5             0                       # Per bank write bursts
system.mem_ctrl.dram.perBankWrBursts::6             0                       # Per bank write bursts
system.mem_ctrl.dram.perBankWrBursts::7             0                       # Per bank write bursts
system.mem_ctrl.dram.perBankWrBursts::8             0                       # Per bank write bursts
system.mem_ctrl.dram.perBankWrBursts::9             0                       # Per bank write bursts
system.mem_ctrl.dram.perBankWrBursts::10            0                       # Per bank write bursts
system.mem_ctrl.dram.perBankWrBursts::11            0                       # Per bank write bursts
system.mem_ctrl.dram.perBankWrBursts::12            0                       # Per bank write bursts
system.mem_ctrl.dram.perBankWrBursts::13            0                       # Per bank write bursts
system.mem_ctrl.dram.perBankWrBursts::14            0                       # Per bank write bursts
system.mem_ctrl.dram.perBankWrBursts::15            0                       # Per bank write bursts
system.mem_ctrl.dram.totQLat                146413500                       # Total ticks spent queuing
system.mem_ctrl.dram.totBusLat               47505000                       # Total ticks spent in databus transfers
system.mem_ctrl.dram.totMemAccLat           324557250                       # Total ticks spent from burst creation until serviced by the DRAM
system.mem_ctrl.dram.avgQLat                 15410.33                       # Average queueing delay per DRAM burst
system.mem_ctrl.dram.avgBusLat                5000.00                       # Average bus latency per DRAM burst
system.mem_ctrl.dram.avgMemAccLat            34160.33                       # Average memory access latency per DRAM burst
system.mem_ctrl.dram.readRowHits                 1537                       # Number of row buffer hits during reads
system.mem_ctrl.dram.writeRowHits                   0                       # Number of row buffer hits during writes
system.mem_ctrl.dram.readRowHitRate             16.18                       # Row buffer hit rate for reads
system.mem_ctrl.dram.writeRowHitRate              nan                       # Row buffer hit rate for writes
system.mem_ctrl.dram.bytesPerActivate::samples         7960                       # Bytes accessed per row activation
system.mem_ctrl.dram.bytesPerActivate::mean    76.333668                       # Bytes accessed per row activation
system.mem_ctrl.dram.bytesPerActivate::gmean    69.613672                       # Bytes accessed per row activation
system.mem_ctrl.dram.bytesPerActivate::stdev    69.376396                       # Bytes accessed per row activation
system.mem_ctrl.dram.bytesPerActivate::0-127         7266     91.28%     91.28% # Bytes accessed per row activation
system.mem_ctrl.dram.bytesPerActivate::128-255          574      7.21%     98.49% # Bytes accessed per row activation
system.mem_ctrl.dram.bytesPerActivate::256-383           46      0.58%     99.07% # Bytes accessed per row activation
system.mem_ctrl.dram.bytesPerActivate::384-511           22      0.28%     99.35% # Bytes accessed per row activation
system.mem_ctrl.dram.bytesPerActivate::512-639           17      0.21%     99.56% # Bytes accessed per row activation
system.mem_ctrl.dram.bytesPerActivate::640-767            5      0.06%     99.62% # Bytes accessed per row activation
system.mem_ctrl.dram.bytesPerActivate::768-895            3      0.04%     99.66% # Bytes accessed per row activation
system.mem_ctrl.dram.bytesPerActivate::896-1023            4      0.05%     99.71% # Bytes accessed per row activation
system.mem_ctrl.dram.bytesPerActivate::1024-1151           23      0.29%    100.00% # Bytes accessed per row activation
system.mem_ctrl.dram.bytesPerActivate::total         7960                       # Bytes accessed per row activation
system.mem_ctrl.dram.bytesRead                 608064                       # Total number of bytes read from DRAM
system.mem_ctrl.dram.bytesWritten                   0                       # Total number of bytes written to DRAM
system.mem_ctrl.dram.avgRdBW                 5.319734                       # Average DRAM read bandwidth in MiBytes/s
system.mem_ctrl.dram.avgWrBW                        0                       # Average DRAM write bandwidth in MiBytes/s
system.mem_ctrl.dram.peakBW                  12800.00                       # Theoretical peak bandwidth in MiByte/s
system.mem_ctrl.dram.busUtil                     0.04                       # Data bus utilization in percentage
system.mem_ctrl.dram.busUtilRead                 0.04                       # Data bus utilization in percentage for reads
system.mem_ctrl.dram.busUtilWrite                0.00                       # Data bus utilization in percentage for writes
system.mem_ctrl.dram.pageHitRate                16.18                       # Row buffer hit rate, read and write combined
system.mem_ctrl.dram.power_state.pwrStateResidencyTicks::UNDEFINED 114303454000                       # Cumulative time (in ticks) in various power states
system.mem_ctrl.dram.rank0.actEnergy         28774200                       # Energy for activate commands per rank (pJ)
system.mem_ctrl.dram.rank0.preEnergy         15290055                       # Energy for precharge commands per rank (pJ)
system.mem_ctrl.dram.rank0.readEnergy        35714280                       # Energy for read commands per rank (pJ)
system.mem_ctrl.dram.rank0.writeEnergy              0                       # Energy for write commands per rank (pJ)
system.mem_ctrl.dram.rank0.refreshEnergy 9022915200.000002                       # Energy for refresh commands per rank (pJ)
system.mem_ctrl.dram.rank0.actBackEnergy   6363169920                       # Energy for active background per rank (pJ)
system.mem_ctrl.dram.rank0.preBackEnergy  38534067840                       # Energy for precharge background per rank (pJ)
system.mem_ctrl.dram.rank0.actPowerDownEnergy            0                       # Energy for active power-down per rank (pJ)
system.mem_ctrl.dram.rank0.prePowerDownEnergy            0                       # Energy for precharge power-down per rank (pJ)
system.mem_ctrl.dram.rank0.selfRefreshEnergy            0                       # Energy for self refresh per rank (pJ)
system.mem_ctrl.dram.rank0.totalEnergy    53999931495                       # Total energy per rank (pJ)
system.mem_ctrl.dram.rank0.averagePower    472.426069                       # Core power per rank (mW)
system.mem_ctrl.dram.rank0.totalIdleTime            0                       # Total Idle time Per DRAM Rank
system.mem_ctrl.dram.rank0.pwrStateTime::IDLE 100111818750                       # Time in different power states
system.mem_ctrl.dram.rank0.pwrStateTime::REF   3816800000                       # Time in different power states
system.mem_ctrl.dram.rank0.pwrStateTime::SREF            0                       # Time in different power states
system.mem_ctrl.dram.rank0.pwrStateTime::PRE_PDN            0                       # Time in different power states
system.mem_ctrl.dram.rank0.pwrStateTime::ACT  10374835250                       # Time in different power states
system.mem_ctrl.dram.rank0.pwrStateTime::ACT_PDN            0                       # Time in different power states
system.mem_ctrl.dram.rank1.actEnergy         28088760                       # Energy for activate commands per rank (pJ)
system.mem_ctrl.dram.rank1.preEnergy         14918145                       # Energy for precharge commands per rank (pJ)
system.mem_ctrl.dram.rank1.readEnergy        32122860                       # Energy for read commands per rank (pJ)
system.mem_ctrl.dram.rank1.writeEnergy              0                       # Energy for write commands per rank (pJ)
system.mem_ctrl.dram.rank1.refreshEnergy 9022915200.000002                       # Energy for refresh commands per rank (pJ)
system.mem_ctrl.dram.rank1.actBackEnergy   6355732560                       # Energy for active background per rank (pJ)
system.mem_ctrl.dram.rank1.preBackEnergy  38540330880                       # Energy for precharge background per rank (pJ)
system.mem_ctrl.dram.rank1.actPowerDownEnergy            0                       # Energy for active power-down per rank (pJ)
system.mem_ctrl.dram.rank1.prePowerDownEnergy            0                       # Energy for precharge power-down per rank (pJ)
system.mem_ctrl.dram.rank1.selfRefreshEnergy            0                       # Energy for self refresh per rank (pJ)
system.mem_ctrl.dram.rank1.totalEnergy    53994108405                       # Total energy per rank (pJ)
system.mem_ctrl.dram.rank1.averagePower    472.375125                       # Core power per rank (mW)
system.mem_ctrl.dram.rank1.totalIdleTime            0                       # Total Idle time Per DRAM Rank
system.mem_ctrl.dram.rank1.pwrStateTime::IDLE 100128469750                       # Time in different power states
system.mem_ctrl.dram.rank1.pwrStateTime::REF   3816800000                       # Time in different power states
system.mem_ctrl.dram.rank1.pwrStateTime::SREF            0                       # Time in different power states
system.mem_ctrl.dram.rank1.pwrStateTime::PRE_PDN            0                       # Time in different power states
system.mem_ctrl.dram.rank1.pwrStateTime::ACT  10358184250                       # Time in different power states
system.mem_ctrl.dram.rank1.pwrStateTime::ACT_PDN            0                       # Time in different power states
system.mem_ctrl.power_state.pwrStateResidencyTicks::UNDEFINED 114303454000                       # Cumulative time (in ticks) in various power states
system.membus.trans_dist::ReadResp                965                       # Transaction distribution
system.membus.trans_dist::WritebackDirty            1                       # Transaction distribution
system.membus.trans_dist::CleanEvict               30                       # Transaction distribution
system.membus.trans_dist::ReadExReq              8537                       # Transaction distribution
system.membus.trans_dist::ReadExResp             8537                       # Transaction distribution
system.membus.trans_dist::ReadSharedReq           965                       # Transaction distribution
system.membus.pkt_count_system.l2cache.mem_side_port::system.mem_ctrl.port        19035                       # Packet count per connected requestor and responder (bytes)
system.membus.pkt_count_system.l2cache.mem_side_port::total        19035                       # Packet count per connected requestor and responder (bytes)
system.membus.pkt_count::total                  19035                       # Packet count per connected requestor and responder (bytes)
system.membus.pkt_size_system.l2cache.mem_side_port::system.mem_ctrl.port       608192                       # Cumulative packet size per connected requestor and responder (bytes)
system.membus.pkt_size_system.l2cache.mem_side_port::total       608192                       # Cumulative packet size per connected requestor and responder (bytes)
system.membus.pkt_size::total                  608192                       # Cumulative packet size per connected requestor and responder (bytes)
system.membus.snoops                                0                       # Total snoops (count)
system.membus.snoopTraffic                          0                       # Total snoop traffic (bytes)
system.membus.snoop_fanout::samples              9502                       # Request fanout histogram
system.membus.snoop_fanout::mean                    0                       # Request fanout histogram
system.membus.snoop_fanout::stdev                   0                       # Request fanout histogram
system.membus.snoop_fanout::underflows              0      0.00%      0.00% # Request fanout histogram
system.membus.snoop_fanout::0                    9502    100.00%    100.00% # Request fanout histogram
system.membus.snoop_fanout::1                       0      0.00%    100.00% # Request fanout histogram
system.membus.snoop_fanout::overflows               0      0.00%    100.00% # Request fanout histogram
system.membus.snoop_fanout::min_value               0                       # Request fanout histogram
system.membus.snoop_fanout::max_value               0                       # Request fanout histogram
system.membus.snoop_fanout::total                9502                       # Request fanout histogram
system.membus.power_state.pwrStateResidencyTicks::UNDEFINED 114303454000                       # Cumulative time (in ticks) in various power states
system.membus.reqLayer2.occupancy             9537000                       # Layer occupancy (ticks)
system.membus.reqLayer2.utilization               0.0                       # Layer utilization (%)
system.membus.respLayer0.occupancy           52023250                       # Layer occupancy (ticks)
system.membus.respLayer0.utilization              0.0                       # Layer utilization (%)

---------- End Simulation Statistics   ----------
