
---------- Begin Simulation Statistics ----------
final_tick                               2320147421000                       # Number of ticks from beginning of simulation (restored from checkpoints and never reset)
host_inst_rate                                 453924                       # Simulator instruction rate (inst/s)
host_mem_usage                                 674440                       # Number of bytes of host memory used
host_op_rate                                   665045                       # Simulator op (including micro ops) rate (op/s)
host_seconds                                  1159.18                       # Real time elapsed on the host
host_tick_rate                             2001550234                       # Simulator tick rate (ticks/s)
sim_freq                                 1000000000000                       # Frequency of simulated ticks
sim_insts                                   526177752                       # Number of instructions simulated
sim_ops                                     770903859                       # Number of ops (including micro ops) simulated
sim_seconds                                  2.320147                       # Number of seconds simulated
sim_ticks                                2320147421000                       # Number of ticks simulated
system.cpu.Branches                           3021924                       # Number of branches fetched
system.cpu.committedInsts                   526177752                       # Number of instructions committed
system.cpu.committedOps                     770903859                       # Number of ops (including micro ops) committed
system.cpu.idle_fraction                     0.000000                       # Percentage of idle cycles
system.cpu.not_idle_fraction                 1.000000                       # Percentage of non-idle cycles
system.cpu.numCycles                       2320147421                       # number of cpu cycles simulated
system.cpu.numWorkItemsCompleted                    0                       # number of work items this cpu completed
system.cpu.numWorkItemsStarted                      0                       # number of work items this cpu started
system.cpu.num_busy_cycles               2320147420.999000                       # Number of busy cycles
system.cpu.num_cc_register_reads              8346464                       # number of times the CC registers were read
system.cpu.num_cc_register_writes            12896352                       # number of times the CC registers were written
system.cpu.num_conditional_control_insts      1622654                       # number of instructions that are conditional controls
system.cpu.num_fp_alu_accesses              724171269                       # Number of float alu accesses
system.cpu.num_fp_insts                     724171269                       # number of float instructions
system.cpu.num_fp_register_reads           1031628198                       # number of times the floating registers were read
system.cpu.num_fp_register_writes           638978691                       # number of times the floating registers were written
system.cpu.num_func_calls                     1356008                       # number of times a function call or return occured
system.cpu.num_idle_cycles                   0.001000                       # Number of idle cycles
system.cpu.num_int_alu_accesses             281644033                       # Number of integer alu accesses
system.cpu.num_int_insts                    281644033                       # number of integer instructions
system.cpu.num_int_register_reads           783870384                       # number of times the integer registers were read
system.cpu.num_int_register_writes           35235630                       # number of times the integer registers were written
system.cpu.num_load_insts                   151055070                       # Number of load instructions
system.cpu.num_mem_refs                     244655506                       # number of memory refs
system.cpu.num_store_insts                   93600436                       # Number of store instructions
system.cpu.num_vec_alu_accesses                     0                       # Number of vector alu accesses
system.cpu.num_vec_insts                            0                       # number of vector instructions
system.cpu.num_vec_register_reads                   0                       # number of times the vector registers were read
system.cpu.num_vec_register_writes                  0                       # number of times the vector registers were written
system.cpu.op_class::No_OpClass                122349      0.02%      0.02% # Class of executed instruction
system.cpu.op_class::IntAlu                 156847964     20.35%     20.36% # Class of executed instruction
system.cpu.op_class::IntMult                    38310      0.00%     20.37% # Class of executed instruction
system.cpu.op_class::IntDiv                       574      0.00%     20.37% # Class of executed instruction
system.cpu.op_class::FloatAdd               129162355     16.75%     37.12% # Class of executed instruction
system.cpu.op_class::FloatCmp                       0      0.00%     37.12% # Class of executed instruction
system.cpu.op_class::FloatCvt                       0      0.00%     37.12% # Class of executed instruction
system.cpu.op_class::FloatMult                      0      0.00%     37.12% # Class of executed instruction
system.cpu.op_class::FloatMultAcc                   0      0.00%     37.12% # Class of executed instruction
system.cpu.op_class::FloatDiv                       0      0.00%     37.12% # Class of executed instruction
system.cpu.op_class::FloatMisc                      0      0.00%     37.12% # Class of executed instruction
system.cpu.op_class::FloatSqrt                      0      0.00%     37.12% # Class of executed instruction
system.cpu.op_class::SimdAdd                      104      0.00%     37.12% # Class of executed instruction
system.cpu.op_class::SimdAddAcc                     0      0.00%     37.12% # Class of executed instruction
system.cpu.op_class::SimdAlu                 13572619      1.76%     38.88% # Class of executed instruction
system.cpu.op_class::SimdCmp                       18      0.00%     38.88% # Class of executed instruction
system.cpu.op_class::SimdCvt                     1518      0.00%     38.88% # Class of executed instruction
system.cpu.op_class::SimdMisc                   18290      0.00%     38.88% # Class of executed instruction
system.cpu.op_class::SimdMult                       0      0.00%     38.88% # Class of executed instruction
system.cpu.op_class::SimdMultAcc                    0      0.00%     38.88% # Class of executed instruction
system.cpu.op_class::SimdShift                    156      0.00%     38.88% # Class of executed instruction
system.cpu.op_class::SimdShiftAcc                   0      0.00%     38.88% # Class of executed instruction
system.cpu.op_class::SimdDiv                        0      0.00%     38.88% # Class of executed instruction
system.cpu.op_class::SimdSqrt                       0      0.00%     38.88% # Class of executed instruction
system.cpu.op_class::SimdFloatAdd           100487583     13.04%     51.92% # Class of executed instruction
system.cpu.op_class::SimdFloatAlu                   0      0.00%     51.92% # Class of executed instruction
system.cpu.op_class::SimdFloatCmp                   0      0.00%     51.92% # Class of executed instruction
system.cpu.op_class::SimdFloatCvt               11622      0.00%     51.92% # Class of executed instruction
system.cpu.op_class::SimdFloatDiv             1355195      0.18%     52.10% # Class of executed instruction
system.cpu.op_class::SimdFloatMisc                  0      0.00%     52.10% # Class of executed instruction
system.cpu.op_class::SimdFloatMult          124629795     16.17%     68.26% # Class of executed instruction
system.cpu.op_class::SimdFloatMultAcc               0      0.00%     68.26% # Class of executed instruction
system.cpu.op_class::SimdFloatSqrt                 10      0.00%     68.26% # Class of executed instruction
system.cpu.op_class::SimdReduceAdd                  0      0.00%     68.26% # Class of executed instruction
system.cpu.op_class::SimdReduceAlu                  0      0.00%     68.26% # Class of executed instruction
system.cpu.op_class::SimdReduceCmp                  0      0.00%     68.26% # Class of executed instruction
system.cpu.op_class::SimdFloatReduceAdd             0      0.00%     68.26% # Class of executed instruction
system.cpu.op_class::SimdFloatReduceCmp             0      0.00%     68.26% # Class of executed instruction
system.cpu.op_class::SimdAes                        0      0.00%     68.26% # Class of executed instruction
system.cpu.op_class::SimdAesMix                     0      0.00%     68.26% # Class of executed instruction
system.cpu.op_class::SimdSha1Hash                   0      0.00%     68.26% # Class of executed instruction
system.cpu.op_class::SimdSha1Hash2                  0      0.00%     68.26% # Class of executed instruction
system.cpu.op_class::SimdSha256Hash                 0      0.00%     68.26% # Class of executed instruction
system.cpu.op_class::SimdSha256Hash2                0      0.00%     68.26% # Class of executed instruction
system.cpu.op_class::SimdShaSigma2                  0      0.00%     68.26% # Class of executed instruction
system.cpu.op_class::SimdShaSigma3                  0      0.00%     68.26% # Class of executed instruction
system.cpu.op_class::SimdPredAlu                    0      0.00%     68.26% # Class of executed instruction
system.cpu.op_class::MemRead                  1225927      0.16%     68.42% # Class of executed instruction
system.cpu.op_class::MemWrite                 8411221      1.09%     69.51% # Class of executed instruction
system.cpu.op_class::FloatMemRead           149829143     19.44%     88.95% # Class of executed instruction
system.cpu.op_class::FloatMemWrite           85189215     11.05%    100.00% # Class of executed instruction
system.cpu.op_class::IprAccess                      0      0.00%    100.00% # Class of executed instruction
system.cpu.op_class::InstPrefetch                   0      0.00%    100.00% # Class of executed instruction
system.cpu.op_class::total                  770903968                       # Class of executed instruction
system.cpu.workload.numSyscalls                    85                       # Number of system calls
system.l2bus.snoop_filter.hit_multi_requests            0                       # Number of requests hitting in the snoop filter with multiple (>1) holders of the requested data.
system.l2bus.snoop_filter.hit_multi_snoops            0                       # Number of snoops hitting in the snoop filter with multiple (>1) holders of the requested data.
system.l2bus.snoop_filter.hit_single_requests      4513456                       # Number of requests hitting in the snoop filter with a single holder of the requested data.
system.l2bus.snoop_filter.hit_single_snoops        22087                       # Number of snoops hitting in the snoop filter with a single holder of the requested data.
system.l2bus.snoop_filter.tot_requests        9028192                       # Total number of requests made to the snoop filter.
system.l2bus.snoop_filter.tot_snoops            22087                       # Total number of snoops made to the snoop filter.
system.membus.snoop_filter.hit_multi_requests            0                       # Number of requests hitting in the snoop filter with multiple (>1) holders of the requested data.
system.membus.snoop_filter.hit_multi_snoops            0                       # Number of snoops hitting in the snoop filter with multiple (>1) holders of the requested data.
system.membus.snoop_filter.hit_single_requests       413552                       # Number of requests hitting in the snoop filter with a single holder of the requested data.
system.membus.snoop_filter.hit_single_snoops            0                       # Number of snoops hitting in the snoop filter with a single holder of the requested data.
system.membus.snoop_filter.tot_requests        831228                       # Total number of requests made to the snoop filter.
system.membus.snoop_filter.tot_snoops               0                       # Total number of snoops made to the snoop filter.
system.clk_domain.clock                          1000                       # Clock period in ticks
system.clk_domain.voltage_domain.voltage            1                       # Voltage in Volts
system.cpu.dcache.demand_hits::.cpu.data    243143532                       # number of demand (read+write) hits
system.cpu.dcache.demand_hits::total        243143532                       # number of demand (read+write) hits
system.cpu.dcache.overall_hits::.cpu.data    243143532                       # number of overall hits
system.cpu.dcache.overall_hits::total       243143532                       # number of overall hits
system.cpu.dcache.demand_misses::.cpu.data      1512015                       # number of demand (read+write) misses
system.cpu.dcache.demand_misses::total        1512015                       # number of demand (read+write) misses
system.cpu.dcache.overall_misses::.cpu.data      1512015                       # number of overall misses
system.cpu.dcache.overall_misses::total       1512015                       # number of overall misses
system.cpu.dcache.demand_miss_latency::.cpu.data  67768609000                       # number of demand (read+write) miss cycles
system.cpu.dcache.demand_miss_latency::total  67768609000                       # number of demand (read+write) miss cycles
system.cpu.dcache.overall_miss_latency::.cpu.data  67768609000                       # number of overall miss cycles
system.cpu.dcache.overall_miss_latency::total  67768609000                       # number of overall miss cycles
system.cpu.dcache.demand_accesses::.cpu.data    244655547                       # number of demand (read+write) accesses
system.cpu.dcache.demand_accesses::total    244655547                       # number of demand (read+write) accesses
system.cpu.dcache.overall_accesses::.cpu.data    244655547                       # number of overall (read+write) accesses
system.cpu.dcache.overall_accesses::total    244655547                       # number of overall (read+write) accesses
system.cpu.dcache.demand_miss_rate::.cpu.data     0.006180                       # miss rate for demand accesses
system.cpu.dcache.demand_miss_rate::total     0.006180                       # miss rate for demand accesses
system.cpu.dcache.overall_miss_rate::.cpu.data     0.006180                       # miss rate for overall accesses
system.cpu.dcache.overall_miss_rate::total     0.006180                       # miss rate for overall accesses
system.cpu.dcache.demand_avg_miss_latency::.cpu.data 44820.063954                       # average overall miss latency
system.cpu.dcache.demand_avg_miss_latency::total 44820.063954                       # average overall miss latency
system.cpu.dcache.overall_avg_miss_latency::.cpu.data 44820.063954                       # average overall miss latency
system.cpu.dcache.overall_avg_miss_latency::total 44820.063954                       # average overall miss latency
system.cpu.dcache.blocked_cycles::no_mshrs            0                       # number of cycles access was blocked
system.cpu.dcache.blocked_cycles::no_targets            0                       # number of cycles access was blocked
system.cpu.dcache.blocked::no_mshrs                 0                       # number of cycles access was blocked
system.cpu.dcache.blocked::no_targets               0                       # number of cycles access was blocked
system.cpu.dcache.avg_blocked_cycles::no_mshrs          nan                       # average number of cycles each access was blocked
system.cpu.dcache.avg_blocked_cycles::no_targets          nan                       # average number of cycles each access was blocked
system.cpu.dcache.writebacks::.writebacks       819396                       # number of writebacks
system.cpu.dcache.writebacks::total            819396                       # number of writebacks
system.cpu.dcache.demand_mshr_misses::.cpu.data      1512015                       # number of demand (read+write) MSHR misses
system.cpu.dcache.demand_mshr_misses::total      1512015                       # number of demand (read+write) MSHR misses
system.cpu.dcache.overall_mshr_misses::.cpu.data      1512015                       # number of overall MSHR misses
system.cpu.dcache.overall_mshr_misses::total      1512015                       # number of overall MSHR misses
system.cpu.dcache.demand_mshr_miss_latency::.cpu.data  64744579000                       # number of demand (read+write) MSHR miss cycles
system.cpu.dcache.demand_mshr_miss_latency::total  64744579000                       # number of demand (read+write) MSHR miss cycles
system.cpu.dcache.overall_mshr_miss_latency::.cpu.data  64744579000                       # number of overall MSHR miss cycles
system.cpu.dcache.overall_mshr_miss_latency::total  64744579000                       # number of overall MSHR miss cycles
system.cpu.dcache.demand_mshr_miss_rate::.cpu.data     0.006180                       # mshr miss rate for demand accesses
system.cpu.dcache.demand_mshr_miss_rate::total     0.006180                       # mshr miss rate for demand accesses
system.cpu.dcache.overall_mshr_miss_rate::.cpu.data     0.006180                       # mshr miss rate for overall accesses
system.cpu.dcache.overall_mshr_miss_rate::total     0.006180                       # mshr miss rate for overall accesses
system.cpu.dcache.demand_avg_mshr_miss_latency::.cpu.data 42820.063954                       # average overall mshr miss latency
system.cpu.dcache.demand_avg_mshr_miss_latency::total 42820.063954                       # average overall mshr miss latency
system.cpu.dcache.overall_avg_mshr_miss_latency::.cpu.data 42820.063954                       # average overall mshr miss latency
system.cpu.dcache.overall_avg_mshr_miss_latency::total 42820.063954                       # average overall mshr miss latency
system.cpu.dcache.replacements                1510991                       # number of replacements
system.cpu.dcache.ReadReq_hits::.cpu.data    149747011                       # number of ReadReq hits
system.cpu.dcache.ReadReq_hits::total       149747011                       # number of ReadReq hits
system.cpu.dcache.ReadReq_misses::.cpu.data      1308087                       # number of ReadReq misses
system.cpu.dcache.ReadReq_misses::total       1308087                       # number of ReadReq misses
system.cpu.dcache.ReadReq_miss_latency::.cpu.data  53716431000                       # number of ReadReq miss cycles
system.cpu.dcache.ReadReq_miss_latency::total  53716431000                       # number of ReadReq miss cycles
system.cpu.dcache.ReadReq_accesses::.cpu.data    151055098                       # number of ReadReq accesses(hits+misses)
system.cpu.dcache.ReadReq_accesses::total    151055098                       # number of ReadReq accesses(hits+misses)
system.cpu.dcache.ReadReq_miss_rate::.cpu.data     0.008660                       # miss rate for ReadReq accesses
system.cpu.dcache.ReadReq_miss_rate::total     0.008660                       # miss rate for ReadReq accesses
system.cpu.dcache.ReadReq_avg_miss_latency::.cpu.data 41064.876419                       # average ReadReq miss latency
system.cpu.dcache.ReadReq_avg_miss_latency::total 41064.876419                       # average ReadReq miss latency
system.cpu.dcache.ReadReq_mshr_misses::.cpu.data      1308087                       # number of ReadReq MSHR misses
system.cpu.dcache.ReadReq_mshr_misses::total      1308087                       # number of ReadReq MSHR misses
system.cpu.dcache.ReadReq_mshr_miss_latency::.cpu.data  51100257000                       # number of ReadReq MSHR miss cycles
system.cpu.dcache.ReadReq_mshr_miss_latency::total  51100257000                       # number of ReadReq MSHR miss cycles
system.cpu.dcache.ReadReq_mshr_miss_rate::.cpu.data     0.008660                       # mshr miss rate for ReadReq accesses
system.cpu.dcache.ReadReq_mshr_miss_rate::total     0.008660                       # mshr miss rate for ReadReq accesses
system.cpu.dcache.ReadReq_avg_mshr_miss_latency::.cpu.data 39064.876419                       # average ReadReq mshr miss latency
system.cpu.dcache.ReadReq_avg_mshr_miss_latency::total 39064.876419                       # average ReadReq mshr miss latency
system.cpu.dcache.WriteReq_hits::.cpu.data     93396521                       # number of WriteReq hits
system.cpu.dcache.WriteReq_hits::total       93396521                       # number of WriteReq hits
system.cpu.dcache.WriteReq_misses::.cpu.data       203928                       # number of WriteReq misses
system.cpu.dcache.WriteReq_misses::total       203928                       # number of WriteReq misses
system.cpu.dcache.WriteReq_miss_latency::.cpu.data  14052178000                       # number of WriteReq miss cycles
system.cpu.dcache.WriteReq_miss_latency::total  14052178000                       # number of WriteReq miss cycles
system.cpu.dcache.WriteReq_accesses::.cpu.data     93600449                       # number of WriteReq accesses(hits+misses)
system.cpu.dcache.WriteReq_accesses::total     93600449                       # number of WriteReq accesses(hits+misses)
system.cpu.dcache.WriteReq_miss_rate::.cpu.data     0.002179                       # miss rate for WriteReq accesses
system.cpu.dcache.WriteReq_miss_rate::total     0.002179                       # miss rate for WriteReq accesses
system.cpu.dcache.WriteReq_avg_miss_latency::.cpu.data 68907.545800                       # average WriteReq miss latency
system.cpu.dcache.WriteReq_avg_miss_latency::total 68907.545800                       # average WriteReq miss latency
system.cpu.dcache.WriteReq_mshr_misses::.cpu.data       203928                       # number of WriteReq MSHR misses
system.cpu.dcache.WriteReq_mshr_misses::total       203928                       # number of WriteReq MSHR misses
system.cpu.dcache.WriteReq_mshr_miss_latency::.cpu.data  13644322000                       # number of WriteReq MSHR miss cycles
system.cpu.dcache.WriteReq_mshr_miss_latency::total  13644322000                       # number of WriteReq MSHR miss cycles
system.cpu.dcache.WriteReq_mshr_miss_rate::.cpu.data     0.002179                       # mshr miss rate for WriteReq accesses
system.cpu.dcache.WriteReq_mshr_miss_rate::total     0.002179                       # mshr miss rate for WriteReq accesses
system.cpu.dcache.WriteReq_avg_mshr_miss_latency::.cpu.data 66907.545800                       # average WriteReq mshr miss latency
system.cpu.dcache.WriteReq_avg_mshr_miss_latency::total 66907.545800                       # average WriteReq mshr miss latency
system.cpu.dcache.power_state.pwrStateResidencyTicks::UNDEFINED 2320147421000                       # Cumulative time (in ticks) in various power states
system.cpu.dcache.tags.tagsinuse          1023.846163                       # Cycle average of tags in use
system.cpu.dcache.tags.total_refs           244655547                       # Total number of references to valid blocks.
system.cpu.dcache.tags.sampled_refs           1512015                       # Sample count of references to valid blocks.
system.cpu.dcache.tags.avg_refs            161.807619                       # Average number of references to valid blocks.
system.cpu.dcache.tags.warmup_cycle            224000                       # Cycle when the warmup percentage was hit.
system.cpu.dcache.tags.occ_blocks::.cpu.data  1023.846163                       # Average occupied blocks per requestor
system.cpu.dcache.tags.occ_percent::.cpu.data     0.999850                       # Average percentage of cache occupancy
system.cpu.dcache.tags.occ_percent::total     0.999850                       # Average percentage of cache occupancy
system.cpu.dcache.tags.occ_task_id_blocks::1024         1024                       # Occupied blocks per task id
system.cpu.dcache.tags.age_task_id_blocks_1024::0           27                       # Occupied blocks per task id
system.cpu.dcache.tags.age_task_id_blocks_1024::1           84                       # Occupied blocks per task id
system.cpu.dcache.tags.age_task_id_blocks_1024::2          498                       # Occupied blocks per task id
system.cpu.dcache.tags.age_task_id_blocks_1024::3          415                       # Occupied blocks per task id
system.cpu.dcache.tags.occ_task_id_percent::1024            1                       # Percentage of cache occupancy per task id
system.cpu.dcache.tags.tag_accesses         490823109                       # Number of tag accesses
system.cpu.dcache.tags.data_accesses        490823109                       # Number of data accesses
system.cpu.dcache.tags.power_state.pwrStateResidencyTicks::UNDEFINED 2320147421000                       # Cumulative time (in ticks) in various power states
system.cpu.dtb.rdAccesses                   151055099                       # TLB accesses on read requests
system.cpu.dtb.wrAccesses                    93600472                       # TLB accesses on write requests
system.cpu.dtb.rdMisses                          4202                       # TLB misses on read requests
system.cpu.dtb.wrMisses                          2551                       # TLB misses on write requests
system.cpu.dtb.walker.power_state.pwrStateResidencyTicks::UNDEFINED 2320147421000                       # Cumulative time (in ticks) in various power states
system.cpu.icache.demand_hits::.cpu.inst    841887895                       # number of demand (read+write) hits
system.cpu.icache.demand_hits::total        841887895                       # number of demand (read+write) hits
system.cpu.icache.overall_hits::.cpu.inst    841887895                       # number of overall hits
system.cpu.icache.overall_hits::total       841887895                       # number of overall hits
system.cpu.icache.demand_misses::.cpu.inst      3002721                       # number of demand (read+write) misses
system.cpu.icache.demand_misses::total        3002721                       # number of demand (read+write) misses
system.cpu.icache.overall_misses::.cpu.inst      3002721                       # number of overall misses
system.cpu.icache.overall_misses::total       3002721                       # number of overall misses
system.cpu.icache.demand_miss_latency::.cpu.inst  82316026000                       # number of demand (read+write) miss cycles
system.cpu.icache.demand_miss_latency::total  82316026000                       # number of demand (read+write) miss cycles
system.cpu.icache.overall_miss_latency::.cpu.inst  82316026000                       # number of overall miss cycles
system.cpu.icache.overall_miss_latency::total  82316026000                       # number of overall miss cycles
system.cpu.icache.demand_accesses::.cpu.inst    844890616                       # number of demand (read+write) accesses
system.cpu.icache.demand_accesses::total    844890616                       # number of demand (read+write) accesses
system.cpu.icache.overall_accesses::.cpu.inst    844890616                       # number of overall (read+write) accesses
system.cpu.icache.overall_accesses::total    844890616                       # number of overall (read+write) accesses
system.cpu.icache.demand_miss_rate::.cpu.inst     0.003554                       # miss rate for demand accesses
system.cpu.icache.demand_miss_rate::total     0.003554                       # miss rate for demand accesses
system.cpu.icache.overall_miss_rate::.cpu.inst     0.003554                       # miss rate for overall accesses
system.cpu.icache.overall_miss_rate::total     0.003554                       # miss rate for overall accesses
system.cpu.icache.demand_avg_miss_latency::.cpu.inst 27413.811007                       # average overall miss latency
system.cpu.icache.demand_avg_miss_latency::total 27413.811007                       # average overall miss latency
system.cpu.icache.overall_avg_miss_latency::.cpu.inst 27413.811007                       # average overall miss latency
system.cpu.icache.overall_avg_miss_latency::total 27413.811007                       # average overall miss latency
system.cpu.icache.blocked_cycles::no_mshrs            0                       # number of cycles access was blocked
system.cpu.icache.blocked_cycles::no_targets            0                       # number of cycles access was blocked
system.cpu.icache.blocked::no_mshrs                 0                       # number of cycles access was blocked
system.cpu.icache.blocked::no_targets               0                       # number of cycles access was blocked
system.cpu.icache.avg_blocked_cycles::no_mshrs          nan                       # average number of cycles each access was blocked
system.cpu.icache.avg_blocked_cycles::no_targets          nan                       # average number of cycles each access was blocked
system.cpu.icache.demand_mshr_misses::.cpu.inst      3002721                       # number of demand (read+write) MSHR misses
system.cpu.icache.demand_mshr_misses::total      3002721                       # number of demand (read+write) MSHR misses
system.cpu.icache.overall_mshr_misses::.cpu.inst      3002721                       # number of overall MSHR misses
system.cpu.icache.overall_mshr_misses::total      3002721                       # number of overall MSHR misses
system.cpu.icache.demand_mshr_miss_latency::.cpu.inst  76310584000                       # number of demand (read+write) MSHR miss cycles
system.cpu.icache.demand_mshr_miss_latency::total  76310584000                       # number of demand (read+write) MSHR miss cycles
system.cpu.icache.overall_mshr_miss_latency::.cpu.inst  76310584000                       # number of overall MSHR miss cycles
system.cpu.icache.overall_mshr_miss_latency::total  76310584000                       # number of overall MSHR miss cycles
system.cpu.icache.demand_mshr_miss_rate::.cpu.inst     0.003554                       # mshr miss rate for demand accesses
system.cpu.icache.demand_mshr_miss_rate::total     0.003554                       # mshr miss rate for demand accesses
system.cpu.icache.overall_mshr_miss_rate::.cpu.inst     0.003554                       # mshr miss rate for overall accesses
system.cpu.icache.overall_mshr_miss_rate::total     0.003554                       # mshr miss rate for overall accesses
system.cpu.icache.demand_avg_mshr_miss_latency::.cpu.inst 25413.811007                       # average overall mshr miss latency
system.cpu.icache.demand_avg_mshr_miss_latency::total 25413.811007                       # average overall mshr miss latency
system.cpu.icache.overall_avg_mshr_miss_latency::.cpu.inst 25413.811007                       # average overall mshr miss latency
system.cpu.icache.overall_avg_mshr_miss_latency::total 25413.811007                       # average overall mshr miss latency
system.cpu.icache.replacements                3002465                       # number of replacements
system.cpu.icache.ReadReq_hits::.cpu.inst    841887895                       # number of ReadReq hits
system.cpu.icache.ReadReq_hits::total       841887895                       # number of ReadReq hits
system.cpu.icache.ReadReq_misses::.cpu.inst      3002721                       # number of ReadReq misses
system.cpu.icache.ReadReq_misses::total       3002721                       # number of ReadReq misses
system.cpu.icache.ReadReq_miss_latency::.cpu.inst  82316026000                       # number of ReadReq miss cycles
system.cpu.icache.ReadReq_miss_latency::total  82316026000                       # number of ReadReq miss cycles
system.cpu.icache.ReadReq_accesses::.cpu.inst    844890616                       # number of ReadReq accesses(hits+misses)
system.cpu.icache.ReadReq_accesses::total    844890616                       # number of ReadReq accesses(hits+misses)
system.cpu.icache.ReadReq_miss_rate::.cpu.inst     0.003554                       # miss rate for ReadReq accesses
system.cpu.icache.ReadReq_miss_rate::total     0.003554                       # miss rate for ReadReq accesses
system.cpu.icache.ReadReq_avg_miss_latency::.cpu.inst 27413.811007                       # average ReadReq miss latency
system.cpu.icache.ReadReq_avg_miss_latency::total 27413.811007                       # average ReadReq miss latency
system.cpu.icache.ReadReq_mshr_misses::.cpu.inst      3002721                       # number of ReadReq MSHR misses
system.cpu.icache.ReadReq_mshr_misses::total      3002721                       # number of ReadReq MSHR misses
system.cpu.icache.ReadReq_mshr_miss_latency::.cpu.inst  76310584000                       # number of ReadReq MSHR miss cycles
system.cpu.icache.ReadReq_mshr_miss_latency::total  76310584000                       # number of ReadReq MSHR miss cycles
system.cpu.icache.ReadReq_mshr_miss_rate::.cpu.inst     0.003554                       # mshr miss rate for ReadReq accesses
system.cpu.icache.ReadReq_mshr_miss_rate::total     0.003554                       # mshr miss rate for ReadReq accesses
system.cpu.icache.ReadReq_avg_mshr_miss_latency::.cpu.inst 25413.811007                       # average ReadReq mshr miss latency
system.cpu.icache.ReadReq_avg_mshr_miss_latency::total 25413.811007                       # average ReadReq mshr miss latency
system.cpu.icache.power_state.pwrStateResidencyTicks::UNDEFINED 2320147421000                       # Cumulative time (in ticks) in various power states
system.cpu.icache.tags.tagsinuse           255.994450                       # Cycle average of tags in use
system.cpu.icache.tags.total_refs           844890616                       # Total number of references to valid blocks.
system.cpu.icache.tags.sampled_refs           3002721                       # Sample count of references to valid blocks.
system.cpu.icache.tags.avg_refs            281.374998                       # Average number of references to valid blocks.
system.cpu.icache.tags.warmup_cycle            107000                       # Cycle when the warmup percentage was hit.
system.cpu.icache.tags.occ_blocks::.cpu.inst   255.994450                       # Average occupied blocks per requestor
system.cpu.icache.tags.occ_percent::.cpu.inst     0.999978                       # Average percentage of cache occupancy
system.cpu.icache.tags.occ_percent::total     0.999978                       # Average percentage of cache occupancy
system.cpu.icache.tags.occ_task_id_blocks::1024          256                       # Occupied blocks per task id
system.cpu.icache.tags.age_task_id_blocks_1024::0           35                       # Occupied blocks per task id
system.cpu.icache.tags.age_task_id_blocks_1024::1          107                       # Occupied blocks per task id
system.cpu.icache.tags.age_task_id_blocks_1024::2          106                       # Occupied blocks per task id
system.cpu.icache.tags.age_task_id_blocks_1024::3            8                       # Occupied blocks per task id
system.cpu.icache.tags.occ_task_id_percent::1024            1                       # Percentage of cache occupancy per task id
system.cpu.icache.tags.tag_accesses        1692783953                       # Number of tag accesses
system.cpu.icache.tags.data_accesses       1692783953                       # Number of data accesses
system.cpu.icache.tags.power_state.pwrStateResidencyTicks::UNDEFINED 2320147421000                       # Cumulative time (in ticks) in various power states
system.cpu.interrupts.clk_domain.clock          16000                       # Clock period in ticks
system.cpu.itb.rdAccesses                           0                       # TLB accesses on read requests
system.cpu.itb.wrAccesses                   844890616                       # TLB accesses on write requests
system.cpu.itb.rdMisses                             0                       # TLB misses on read requests
system.cpu.itb.wrMisses                           158                       # TLB misses on write requests
system.cpu.itb.walker.power_state.pwrStateResidencyTicks::UNDEFINED 2320147421000                       # Cumulative time (in ticks) in various power states
system.cpu.power_state.pwrStateResidencyTicks::ON 2320147421000                       # Cumulative time (in ticks) in various power states
system.cpu.thread_0.numInsts                        0                       # Number of Instructions committed
system.cpu.thread_0.numOps                          0                       # Number of Ops committed
system.cpu.thread_0.numMemRefs                      0                       # Number of Memory References
system.l2bus.trans_dist::ReadResp             4310808                       # Transaction distribution
system.l2bus.trans_dist::WritebackDirty       1018521                       # Transaction distribution
system.l2bus.trans_dist::CleanEvict           3910889                       # Transaction distribution
system.l2bus.trans_dist::ReadExReq             203928                       # Transaction distribution
system.l2bus.trans_dist::ReadExResp            203928                       # Transaction distribution
system.l2bus.trans_dist::ReadSharedReq        4310808                       # Transaction distribution
system.l2bus.pkt_count_system.cpu.icache.mem_side_port::system.l2cache.cpu_side_port      9007907                       # Packet count per connected requestor and responder (bytes)
system.l2bus.pkt_count_system.cpu.dcache.mem_side_port::system.l2cache.cpu_side_port      4535021                       # Packet count per connected requestor and responder (bytes)
system.l2bus.pkt_count::total                13542928                       # Packet count per connected requestor and responder (bytes)
system.l2bus.pkt_size_system.cpu.icache.mem_side_port::system.l2cache.cpu_side_port    192174144                       # Cumulative packet size per connected requestor and responder (bytes)
system.l2bus.pkt_size_system.cpu.dcache.mem_side_port::system.l2cache.cpu_side_port    149210304                       # Cumulative packet size per connected requestor and responder (bytes)
system.l2bus.pkt_size::total                341384448                       # Cumulative packet size per connected requestor and responder (bytes)
system.l2bus.snoops                            415954                       # Total snoops (count)
system.l2bus.snoopTraffic                    12744000                       # Total snoop traffic (bytes)
system.l2bus.snoop_fanout::samples            4930690                       # Request fanout histogram
system.l2bus.snoop_fanout::mean              0.004479                       # Request fanout histogram
system.l2bus.snoop_fanout::stdev             0.066779                       # Request fanout histogram
system.l2bus.snoop_fanout::underflows               0      0.00%      0.00% # Request fanout histogram
system.l2bus.snoop_fanout::0                  4908603     99.55%     99.55% # Request fanout histogram
system.l2bus.snoop_fanout::1                    22087      0.45%    100.00% # Request fanout histogram
system.l2bus.snoop_fanout::2                        0      0.00%    100.00% # Request fanout histogram
system.l2bus.snoop_fanout::overflows                0      0.00%    100.00% # Request fanout histogram
system.l2bus.snoop_fanout::min_value                0                       # Request fanout histogram
system.l2bus.snoop_fanout::max_value                1                       # Request fanout histogram
system.l2bus.snoop_fanout::total              4930690                       # Request fanout histogram
system.l2bus.power_state.pwrStateResidencyTicks::UNDEFINED 2320147421000                       # Cumulative time (in ticks) in various power states
system.l2bus.reqLayer0.occupancy          10666984000                       # Layer occupancy (ticks)
system.l2bus.reqLayer0.utilization                0.5                       # Layer utilization (%)
system.l2bus.respLayer0.occupancy          9008163000                       # Layer occupancy (ticks)
system.l2bus.respLayer0.utilization               0.4                       # Layer utilization (%)
system.l2bus.respLayer1.occupancy          4536045000                       # Layer occupancy (ticks)
system.l2bus.respLayer1.utilization               0.2                       # Layer utilization (%)
system.l2cache.demand_hits::.cpu.inst         2946346                       # number of demand (read+write) hits
system.l2cache.demand_hits::.cpu.data         1150714                       # number of demand (read+write) hits
system.l2cache.demand_hits::total             4097060                       # number of demand (read+write) hits
system.l2cache.overall_hits::.cpu.inst        2946346                       # number of overall hits
system.l2cache.overall_hits::.cpu.data        1150714                       # number of overall hits
system.l2cache.overall_hits::total            4097060                       # number of overall hits
system.l2cache.demand_misses::.cpu.inst         56375                       # number of demand (read+write) misses
system.l2cache.demand_misses::.cpu.data        361301                       # number of demand (read+write) misses
system.l2cache.demand_misses::total            417676                       # number of demand (read+write) misses
system.l2cache.overall_misses::.cpu.inst        56375                       # number of overall misses
system.l2cache.overall_misses::.cpu.data       361301                       # number of overall misses
system.l2cache.overall_misses::total           417676                       # number of overall misses
system.l2cache.demand_miss_latency::.cpu.inst   5428624000                       # number of demand (read+write) miss cycles
system.l2cache.demand_miss_latency::.cpu.data  36038083000                       # number of demand (read+write) miss cycles
system.l2cache.demand_miss_latency::total  41466707000                       # number of demand (read+write) miss cycles
system.l2cache.overall_miss_latency::.cpu.inst   5428624000                       # number of overall miss cycles
system.l2cache.overall_miss_latency::.cpu.data  36038083000                       # number of overall miss cycles
system.l2cache.overall_miss_latency::total  41466707000                       # number of overall miss cycles
system.l2cache.demand_accesses::.cpu.inst      3002721                       # number of demand (read+write) accesses
system.l2cache.demand_accesses::.cpu.data      1512015                       # number of demand (read+write) accesses
system.l2cache.demand_accesses::total         4514736                       # number of demand (read+write) accesses
system.l2cache.overall_accesses::.cpu.inst      3002721                       # number of overall (read+write) accesses
system.l2cache.overall_accesses::.cpu.data      1512015                       # number of overall (read+write) accesses
system.l2cache.overall_accesses::total        4514736                       # number of overall (read+write) accesses
system.l2cache.demand_miss_rate::.cpu.inst     0.018775                       # miss rate for demand accesses
system.l2cache.demand_miss_rate::.cpu.data     0.238953                       # miss rate for demand accesses
system.l2cache.demand_miss_rate::total       0.092514                       # miss rate for demand accesses
system.l2cache.overall_miss_rate::.cpu.inst     0.018775                       # miss rate for overall accesses
system.l2cache.overall_miss_rate::.cpu.data     0.238953                       # miss rate for overall accesses
system.l2cache.overall_miss_rate::total      0.092514                       # miss rate for overall accesses
system.l2cache.demand_avg_miss_latency::.cpu.inst 96294.882483                       # average overall miss latency
system.l2cache.demand_avg_miss_latency::.cpu.data 99745.317616                       # average overall miss latency
system.l2cache.demand_avg_miss_latency::total 99279.601892                       # average overall miss latency
system.l2cache.overall_avg_miss_latency::.cpu.inst 96294.882483                       # average overall miss latency
system.l2cache.overall_avg_miss_latency::.cpu.data 99745.317616                       # average overall miss latency
system.l2cache.overall_avg_miss_latency::total 99279.601892                       # average overall miss latency
system.l2cache.blocked_cycles::no_mshrs             0                       # number of cycles access was blocked
system.l2cache.blocked_cycles::no_targets            0                       # number of cycles access was blocked
system.l2cache.blocked::no_mshrs                    0                       # number of cycles access was blocked
system.l2cache.blocked::no_targets                  0                       # number of cycles access was blocked
system.l2cache.avg_blocked_cycles::no_mshrs          nan                       # average number of cycles each access was blocked
system.l2cache.avg_blocked_cycles::no_targets          nan                       # average number of cycles each access was blocked
system.l2cache.writebacks::.writebacks         199125                       # number of writebacks
system.l2cache.writebacks::total               199125                       # number of writebacks
system.l2cache.demand_mshr_misses::.cpu.inst        56375                       # number of demand (read+write) MSHR misses
system.l2cache.demand_mshr_misses::.cpu.data       361301                       # number of demand (read+write) MSHR misses
system.l2cache.demand_mshr_misses::total       417676                       # number of demand (read+write) MSHR misses
system.l2cache.overall_mshr_misses::.cpu.inst        56375                       # number of overall MSHR misses
system.l2cache.overall_mshr_misses::.cpu.data       361301                       # number of overall MSHR misses
system.l2cache.overall_mshr_misses::total       417676                       # number of overall MSHR misses
system.l2cache.demand_mshr_miss_latency::.cpu.inst   4301124000                       # number of demand (read+write) MSHR miss cycles
system.l2cache.demand_mshr_miss_latency::.cpu.data  28812063000                       # number of demand (read+write) MSHR miss cycles
system.l2cache.demand_mshr_miss_latency::total  33113187000                       # number of demand (read+write) MSHR miss cycles
system.l2cache.overall_mshr_miss_latency::.cpu.inst   4301124000                       # number of overall MSHR miss cycles
system.l2cache.overall_mshr_miss_latency::.cpu.data  28812063000                       # number of overall MSHR miss cycles
system.l2cache.overall_mshr_miss_latency::total  33113187000                       # number of overall MSHR miss cycles
system.l2cache.demand_mshr_miss_rate::.cpu.inst     0.018775                       # mshr miss rate for demand accesses
system.l2cache.demand_mshr_miss_rate::.cpu.data     0.238953                       # mshr miss rate for demand accesses
system.l2cache.demand_mshr_miss_rate::total     0.092514                       # mshr miss rate for demand accesses
system.l2cache.overall_mshr_miss_rate::.cpu.inst     0.018775                       # mshr miss rate for overall accesses
system.l2cache.overall_mshr_miss_rate::.cpu.data     0.238953                       # mshr miss rate for overall accesses
system.l2cache.overall_mshr_miss_rate::total     0.092514                       # mshr miss rate for overall accesses
system.l2cache.demand_avg_mshr_miss_latency::.cpu.inst 76294.882483                       # average overall mshr miss latency
system.l2cache.demand_avg_mshr_miss_latency::.cpu.data 79745.317616                       # average overall mshr miss latency
system.l2cache.demand_avg_mshr_miss_latency::total 79279.601892                       # average overall mshr miss latency
system.l2cache.overall_avg_mshr_miss_latency::.cpu.inst 76294.882483                       # average overall mshr miss latency
system.l2cache.overall_avg_mshr_miss_latency::.cpu.data 79745.317616                       # average overall mshr miss latency
system.l2cache.overall_avg_mshr_miss_latency::total 79279.601892                       # average overall mshr miss latency
system.l2cache.replacements                    415954                       # number of replacements
system.l2cache.WritebackDirty_hits::.writebacks       819396                       # number of WritebackDirty hits
system.l2cache.WritebackDirty_hits::total       819396                       # number of WritebackDirty hits
system.l2cache.WritebackDirty_accesses::.writebacks       819396                       # number of WritebackDirty accesses(hits+misses)
system.l2cache.WritebackDirty_accesses::total       819396                       # number of WritebackDirty accesses(hits+misses)
system.l2cache.CleanEvict_mshr_misses::.writebacks        19685                       # number of CleanEvict MSHR misses
system.l2cache.CleanEvict_mshr_misses::total        19685                       # number of CleanEvict MSHR misses
system.l2cache.CleanEvict_mshr_miss_rate::.writebacks          inf                       # mshr miss rate for CleanEvict accesses
system.l2cache.CleanEvict_mshr_miss_rate::total          inf                       # mshr miss rate for CleanEvict accesses
system.l2cache.ReadExReq_hits::.cpu.data        90120                       # number of ReadExReq hits
system.l2cache.ReadExReq_hits::total            90120                       # number of ReadExReq hits
system.l2cache.ReadExReq_misses::.cpu.data       113808                       # number of ReadExReq misses
system.l2cache.ReadExReq_misses::total         113808                       # number of ReadExReq misses
system.l2cache.ReadExReq_miss_latency::.cpu.data  11137232000                       # number of ReadExReq miss cycles
system.l2cache.ReadExReq_miss_latency::total  11137232000                       # number of ReadExReq miss cycles
system.l2cache.ReadExReq_accesses::.cpu.data       203928                       # number of ReadExReq accesses(hits+misses)
system.l2cache.ReadExReq_accesses::total       203928                       # number of ReadExReq accesses(hits+misses)
system.l2cache.ReadExReq_miss_rate::.cpu.data     0.558079                       # miss rate for ReadExReq accesses
system.l2cache.ReadExReq_miss_rate::total     0.558079                       # miss rate for ReadExReq accesses
system.l2cache.ReadExReq_avg_miss_latency::.cpu.data 97859.834107                       # average ReadExReq miss latency
system.l2cache.ReadExReq_avg_miss_latency::total 97859.834107                       # average ReadExReq miss latency
system.l2cache.ReadExReq_mshr_misses::.cpu.data       113808                       # number of ReadExReq MSHR misses
system.l2cache.ReadExReq_mshr_misses::total       113808                       # number of ReadExReq MSHR misses
system.l2cache.ReadExReq_mshr_miss_latency::.cpu.data   8861072000                       # number of ReadExReq MSHR miss cycles
system.l2cache.ReadExReq_mshr_miss_latency::total   8861072000                       # number of ReadExReq MSHR miss cycles
system.l2cache.ReadExReq_mshr_miss_rate::.cpu.data     0.558079                       # mshr miss rate for ReadExReq accesses
system.l2cache.ReadExReq_mshr_miss_rate::total     0.558079                       # mshr miss rate for ReadExReq accesses
system.l2cache.ReadExReq_avg_mshr_miss_latency::.cpu.data 77859.834107                       # average ReadExReq mshr miss latency
system.l2cache.ReadExReq_avg_mshr_miss_latency::total 77859.834107                       # average ReadExReq mshr miss latency
system.l2cache.ReadSharedReq_hits::.cpu.inst      2946346                       # number of ReadSharedReq hits
system.l2cache.ReadSharedReq_hits::.cpu.data      1060594                       # number of ReadSharedReq hits
system.l2cache.ReadSharedReq_hits::total      4006940                       # number of ReadSharedReq hits
system.l2cache.ReadSharedReq_misses::.cpu.inst        56375                       # number of ReadSharedReq misses
system.l2cache.ReadSharedReq_misses::.cpu.data       247493                       # number of ReadSharedReq misses
system.l2cache.ReadSharedReq_misses::total       303868                       # number of ReadSharedReq misses
system.l2cache.ReadSharedReq_miss_latency::.cpu.inst   5428624000                       # number of ReadSharedReq miss cycles
system.l2cache.ReadSharedReq_miss_latency::.cpu.data  24900851000                       # number of ReadSharedReq miss cycles
system.l2cache.ReadSharedReq_miss_latency::total  30329475000                       # number of ReadSharedReq miss cycles
system.l2cache.ReadSharedReq_accesses::.cpu.inst      3002721                       # number of ReadSharedReq accesses(hits+misses)
system.l2cache.ReadSharedReq_accesses::.cpu.data      1308087                       # number of ReadSharedReq accesses(hits+misses)
system.l2cache.ReadSharedReq_accesses::total      4310808                       # number of ReadSharedReq accesses(hits+misses)
system.l2cache.ReadSharedReq_miss_rate::.cpu.inst     0.018775                       # miss rate for ReadSharedReq accesses
system.l2cache.ReadSharedReq_miss_rate::.cpu.data     0.189202                       # miss rate for ReadSharedReq accesses
system.l2cache.ReadSharedReq_miss_rate::total     0.070490                       # miss rate for ReadSharedReq accesses
system.l2cache.ReadSharedReq_avg_miss_latency::.cpu.inst 96294.882483                       # average ReadSharedReq miss latency
system.l2cache.ReadSharedReq_avg_miss_latency::.cpu.data 100612.344592                       # average ReadSharedReq miss latency
system.l2cache.ReadSharedReq_avg_miss_latency::total 99811.349007                       # average ReadSharedReq miss latency
system.l2cache.ReadSharedReq_mshr_misses::.cpu.inst        56375                       # number of ReadSharedReq MSHR misses
system.l2cache.ReadSharedReq_mshr_misses::.cpu.data       247493                       # number of ReadSharedReq MSHR misses
system.l2cache.ReadSharedReq_mshr_misses::total       303868                       # number of ReadSharedReq MSHR misses
system.l2cache.ReadSharedReq_mshr_miss_latency::.cpu.inst   4301124000                       # number of ReadSharedReq MSHR miss cycles
system.l2cache.ReadSharedReq_mshr_miss_latency::.cpu.data  19950991000                       # number of ReadSharedReq MSHR miss cycles
system.l2cache.ReadSharedReq_mshr_miss_latency::total  24252115000                       # number of ReadSharedReq MSHR miss cycles
system.l2cache.ReadSharedReq_mshr_miss_rate::.cpu.inst     0.018775                       # mshr miss rate for ReadSharedReq accesses
system.l2cache.ReadSharedReq_mshr_miss_rate::.cpu.data     0.189202                       # mshr miss rate for ReadSharedReq accesses
system.l2cache.ReadSharedReq_mshr_miss_rate::total     0.070490                       # mshr miss rate for ReadSharedReq accesses
system.l2cache.ReadSharedReq_avg_mshr_miss_latency::.cpu.inst 76294.882483                       # average ReadSharedReq mshr miss latency
system.l2cache.ReadSharedReq_avg_mshr_miss_latency::.cpu.data 80612.344592                       # average ReadSharedReq mshr miss latency
system.l2cache.ReadSharedReq_avg_mshr_miss_latency::total 79811.349007                       # average ReadSharedReq mshr miss latency
system.l2cache.power_state.pwrStateResidencyTicks::UNDEFINED 2320147421000                       # Cumulative time (in ticks) in various power states
system.l2cache.tags.tagsinuse             4092.119214                       # Cycle average of tags in use
system.l2cache.tags.total_refs                9008507                       # Total number of references to valid blocks.
system.l2cache.tags.sampled_refs               420050                       # Sample count of references to valid blocks.
system.l2cache.tags.avg_refs                21.446273                       # Average number of references to valid blocks.
system.l2cache.tags.warmup_cycle                86000                       # Cycle when the warmup percentage was hit.
system.l2cache.tags.occ_blocks::.writebacks     6.002947                       # Average occupied blocks per requestor
system.l2cache.tags.occ_blocks::.cpu.inst   587.448601                       # Average occupied blocks per requestor
system.l2cache.tags.occ_blocks::.cpu.data  3498.667666                       # Average occupied blocks per requestor
system.l2cache.tags.occ_percent::.writebacks     0.001466                       # Average percentage of cache occupancy
system.l2cache.tags.occ_percent::.cpu.inst     0.143420                       # Average percentage of cache occupancy
system.l2cache.tags.occ_percent::.cpu.data     0.854167                       # Average percentage of cache occupancy
system.l2cache.tags.occ_percent::total       0.999053                       # Average percentage of cache occupancy
system.l2cache.tags.occ_task_id_blocks::1024         4096                       # Occupied blocks per task id
system.l2cache.tags.age_task_id_blocks_1024::0           59                       # Occupied blocks per task id
system.l2cache.tags.age_task_id_blocks_1024::1          123                       # Occupied blocks per task id
system.l2cache.tags.age_task_id_blocks_1024::2          676                       # Occupied blocks per task id
system.l2cache.tags.age_task_id_blocks_1024::3         2710                       # Occupied blocks per task id
system.l2cache.tags.age_task_id_blocks_1024::4          528                       # Occupied blocks per task id
system.l2cache.tags.occ_task_id_percent::1024            1                       # Percentage of cache occupancy per task id
system.l2cache.tags.tag_accesses             72645586                       # Number of tag accesses
system.l2cache.tags.data_accesses            72645586                       # Number of data accesses
system.l2cache.tags.power_state.pwrStateResidencyTicks::UNDEFINED 2320147421000                       # Cumulative time (in ticks) in various power states
system.mem_ctrl.avgPriority_.writebacks::samples    199125.00                       # Average QoS priority value for accepted requests
system.mem_ctrl.avgPriority_.cpu.inst::samples     56375.00                       # Average QoS priority value for accepted requests
system.mem_ctrl.avgPriority_.cpu.data::samples    351176.00                       # Average QoS priority value for accepted requests
system.mem_ctrl.priorityMinLatency       0.000000018750                       # per QoS priority minimum request to response latency (s)
system.mem_ctrl.priorityMaxLatency       0.039092244500                       # per QoS priority maximum request to response latency (s)
system.mem_ctrl.numReadWriteTurnArounds         11490                       # Number of turnarounds from READ to WRITE
system.mem_ctrl.numWriteReadTurnArounds         11490                       # Number of turnarounds from WRITE to READ
system.mem_ctrl.numStayReadState              1604560                       # Number of times bus staying in READ state
system.mem_ctrl.numStayWriteState              187866                       # Number of times bus staying in WRITE state
system.mem_ctrl.readReqs                       417676                       # Number of read requests accepted
system.mem_ctrl.writeReqs                      199125                       # Number of write requests accepted
system.mem_ctrl.readBursts                     417676                       # Number of controller read bursts, including those serviced by the write queue
system.mem_ctrl.writeBursts                    199125                       # Number of controller write bursts, including those merged in the write queue
system.mem_ctrl.servicedByWrQ                   10125                       # Number of controller read bursts serviced by the write queue
system.mem_ctrl.mergedWrBursts                      0                       # Number of controller write bursts merged with an existing one
system.mem_ctrl.neitherReadNorWriteReqs             0                       # Number of requests that are neither read nor write
system.mem_ctrl.avgRdQLen                        1.00                       # Average read queue length when enqueuing
system.mem_ctrl.avgWrQLen                       23.92                       # Average write queue length when enqueuing
system.mem_ctrl.numRdRetry                          0                       # Number of times read queue was full causing retry
system.mem_ctrl.numWrRetry                          0                       # Number of times write queue was full causing retry
system.mem_ctrl.readPktSize::0                      0                       # Read request sizes (log2)
system.mem_ctrl.readPktSize::1                      0                       # Read request sizes (log2)
system.mem_ctrl.readPktSize::2                      0                       # Read request sizes (log2)
system.mem_ctrl.readPktSize::3                      0                       # Read request sizes (log2)
system.mem_ctrl.readPktSize::4                      0                       # Read request sizes (log2)
system.mem_ctrl.readPktSize::5                      0                       # Read request sizes (log2)
system.mem_ctrl.readPktSize::6                 417676                       # Read request sizes (log2)
system.mem_ctrl.writePktSize::0                     0                       # Write request sizes (log2)
system.mem_ctrl.writePktSize::1                     0                       # Write request sizes (log2)
system.mem_ctrl.writePktSize::2                     0                       # Write request sizes (log2)
system.mem_ctrl.writePktSize::3                     0                       # Write request sizes (log2)
system.mem_ctrl.writePktSize::4                     0                       # Write request sizes (log2)
system.mem_ctrl.writePktSize::5                     0                       # Write request sizes (log2)
system.mem_ctrl.writePktSize::6                199125                       # Write request sizes (log2)
system.mem_ctrl.rdQLenPdf::0                   407551                       # What read queue length does an incoming req see
system.mem_ctrl.rdQLenPdf::1                        0                       # What read queue length does an incoming req see
system.mem_ctrl.rdQLenPdf::2                        0                       # What read queue length does an incoming req see
system.mem_ctrl.rdQLenPdf::3                        0                       # What read queue length does an incoming req see
system.mem_ctrl.rdQLenPdf::4                        0                       # What read queue length does an incoming req see
system.mem_ctrl.rdQLenPdf::5                        0                       # What read queue length does an incoming req see
system.mem_ctrl.rdQLenPdf::6                        0                       # What read queue length does an incoming req see
system.mem_ctrl.rdQLenPdf::7                        0                       # What read queue length does an incoming req see
system.mem_ctrl.rdQLenPdf::8                        0                       # What read queue length does an incoming req see
system.mem_ctrl.rdQLenPdf::9                        0                       # What read queue length does an incoming req see
system.mem_ctrl.rdQLenPdf::10                       0                       # What read queue length does an incoming req see
system.mem_ctrl.rdQLenPdf::11                       0                       # What read queue length does an incoming req see
system.mem_ctrl.rdQLenPdf::12                       0                       # What read queue length does an incoming req see
system.mem_ctrl.rdQLenPdf::13                       0                       # What read queue length does an incoming req see
system.mem_ctrl.rdQLenPdf::14                       0                       # What read queue length does an incoming req see
system.mem_ctrl.rdQLenPdf::15                       0                       # What read queue length does an incoming req see
system.mem_ctrl.rdQLenPdf::16                       0                       # What read queue length does an incoming req see
system.mem_ctrl.rdQLenPdf::17                       0                       # What read queue length does an incoming req see
system.mem_ctrl.rdQLenPdf::18                       0                       # What read queue length does an incoming req see
system.mem_ctrl.rdQLenPdf::19                       0                       # What read queue length does an incoming req see
system.mem_ctrl.rdQLenPdf::20                       0                       # What read queue length does an incoming req see
system.mem_ctrl.rdQLenPdf::21                       0                       # What read queue length does an incoming req see
system.mem_ctrl.rdQLenPdf::22                       0                       # What read queue length does an incoming req see
system.mem_ctrl.rdQLenPdf::23                       0                       # What read queue length does an incoming req see
system.mem_ctrl.rdQLenPdf::24                       0                       # What read queue length does an incoming req see
system.mem_ctrl.rdQLenPdf::25                       0                       # What read queue length does an incoming req see
system.mem_ctrl.rdQLenPdf::26                       0                       # What read queue length does an incoming req see
system.mem_ctrl.rdQLenPdf::27                       0                       # What read queue length does an incoming req see
system.mem_ctrl.rdQLenPdf::28                       0                       # What read queue length does an incoming req see
system.mem_ctrl.rdQLenPdf::29                       0                       # What read queue length does an incoming req see
system.mem_ctrl.rdQLenPdf::30                       0                       # What read queue length does an incoming req see
system.mem_ctrl.rdQLenPdf::31                       0                       # What read queue length does an incoming req see
system.mem_ctrl.wrQLenPdf::0                        1                       # What write queue length does an incoming req see
system.mem_ctrl.wrQLenPdf::1                        1                       # What write queue length does an incoming req see
system.mem_ctrl.wrQLenPdf::2                        1                       # What write queue length does an incoming req see
system.mem_ctrl.wrQLenPdf::3                        1                       # What write queue length does an incoming req see
system.mem_ctrl.wrQLenPdf::4                        1                       # What write queue length does an incoming req see
system.mem_ctrl.wrQLenPdf::5                        1                       # What write queue length does an incoming req see
system.mem_ctrl.wrQLenPdf::6                        1                       # What write queue length does an incoming req see
system.mem_ctrl.wrQLenPdf::7                        1                       # What write queue length does an incoming req see
system.mem_ctrl.wrQLenPdf::8                        1                       # What write queue length does an incoming req see
system.mem_ctrl.wrQLenPdf::9                        1                       # What write queue length does an incoming req see
system.mem_ctrl.wrQLenPdf::10                       1                       # What write queue length does an incoming req see
system.mem_ctrl.wrQLenPdf::11                       1                       # What write queue length does an incoming req see
system.mem_ctrl.wrQLenPdf::12                       1                       # What write queue length does an incoming req see
system.mem_ctrl.wrQLenPdf::13                       1                       # What write queue length does an incoming req see
system.mem_ctrl.wrQLenPdf::14                       1                       # What write queue length does an incoming req see
system.mem_ctrl.wrQLenPdf::15                    7371                       # What write queue length does an incoming req see
system.mem_ctrl.wrQLenPdf::16                    7886                       # What write queue length does an incoming req see
system.mem_ctrl.wrQLenPdf::17                   11491                       # What write queue length does an incoming req see
system.mem_ctrl.wrQLenPdf::18                   11491                       # What write queue length does an incoming req see
system.mem_ctrl.wrQLenPdf::19                   11491                       # What write queue length does an incoming req see
system.mem_ctrl.wrQLenPdf::20                   11491                       # What write queue length does an incoming req see
system.mem_ctrl.wrQLenPdf::21                   11491                       # What write queue length does an incoming req see
system.mem_ctrl.wrQLenPdf::22                   11492                       # What write queue length does an incoming req see
system.mem_ctrl.wrQLenPdf::23                   11491                       # What write queue length does an incoming req see
system.mem_ctrl.wrQLenPdf::24                   11491                       # What write queue length does an incoming req see
system.mem_ctrl.wrQLenPdf::25                   11491                       # What write queue length does an incoming req see
system.mem_ctrl.wrQLenPdf::26                   11491                       # What write queue length does an incoming req see
system.mem_ctrl.wrQLenPdf::27                   11491                       # What write queue length does an incoming req see
system.mem_ctrl.wrQLenPdf::28                   11490                       # What write queue length does an incoming req see
system.mem_ctrl.wrQLenPdf::29                   11490                       # What write queue length does an incoming req see
system.mem_ctrl.wrQLenPdf::30                   11490                       # What write queue length does an incoming req see
system.mem_ctrl.wrQLenPdf::31                   11490                       # What write queue length does an incoming req see
system.mem_ctrl.wrQLenPdf::32                   11490                       # What write queue length does an incoming req see
system.mem_ctrl.wrQLenPdf::33                       1                       # What write queue length does an incoming req see
system.mem_ctrl.wrQLenPdf::34                       0                       # What write queue length does an incoming req see
system.mem_ctrl.wrQLenPdf::35                       0                       # What write queue length does an incoming req see
system.mem_ctrl.wrQLenPdf::36                       0                       # What write queue length does an incoming req see
system.mem_ctrl.wrQLenPdf::37                       0                       # What write queue length does an incoming req see
system.mem_ctrl.wrQLenPdf::38                       0                       # What write queue length does an incoming req see
system.mem_ctrl.wrQLenPdf::39                       0                       # What write queue length does an incoming req see
system.mem_ctrl.wrQLenPdf::40                       0                       # What write queue length does an incoming req see
system.mem_ctrl.wrQLenPdf::41                       0                       # What write queue length does an incoming req see
system.mem_ctrl.wrQLenPdf::42                       0                       # What write queue length does an incoming req see
system.mem_ctrl.wrQLenPdf::43                       0                       # What write queue length does an incoming req see
system.mem_ctrl.wrQLenPdf::44                       0                       # What write queue length does an incoming req see
system.mem_ctrl.wrQLenPdf::45                       0                       # What write queue length does an incoming req see
system.mem_ctrl.wrQLenPdf::46                       0                       # What write queue length does an incoming req see
system.mem_ctrl.wrQLenPdf::47                       0                       # What write queue length does an incoming req see
system.mem_ctrl.wrQLenPdf::48                       0                       # What write queue length does an incoming req see
system.mem_ctrl.wrQLenPdf::49                       0                       # What write queue length does an incoming req see
system.mem_ctrl.wrQLenPdf::50                       0                       # What write queue length does an incoming req see
system.mem_ctrl.wrQLenPdf::51                       0                       # What write queue length does an incoming req see
system.mem_ctrl.wrQLenPdf::52                       0                       # What write queue length does an incoming req see
system.mem_ctrl.wrQLenPdf::53                       0                       # What write queue length does an incoming req see
system.mem_ctrl.wrQLenPdf::54                       0                       # What write queue length does an incoming req see
system.mem_ctrl.wrQLenPdf::55                       0                       # What write queue length does an incoming req see
system.mem_ctrl.wrQLenPdf::56                       0                       # What write queue length does an incoming req see
system.mem_ctrl.wrQLenPdf::57                       0                       # What write queue length does an incoming req see
system.mem_ctrl.wrQLenPdf::58                       0                       # What write queue length does an incoming req see
system.mem_ctrl.wrQLenPdf::59                       0                       # What write queue length does an incoming req see
system.mem_ctrl.wrQLenPdf::60                       0                       # What write queue length does an incoming req see
system.mem_ctrl.wrQLenPdf::61                       0                       # What write queue length does an incoming req see
system.mem_ctrl.wrQLenPdf::62                       0                       # What write queue length does an incoming req see
system.mem_ctrl.wrQLenPdf::63                       0                       # What write queue length does an incoming req see
system.mem_ctrl.rdPerTurnAround::samples        11490                       # Reads before turning the bus around for writes
system.mem_ctrl.rdPerTurnAround::mean       35.465448                       # Reads before turning the bus around for writes
system.mem_ctrl.rdPerTurnAround::gmean      28.467817                       # Reads before turning the bus around for writes
system.mem_ctrl.rdPerTurnAround::stdev      53.656354                       # Reads before turning the bus around for writes
system.mem_ctrl.rdPerTurnAround::0-255          11428     99.46%     99.46% # Reads before turning the bus around for writes
system.mem_ctrl.rdPerTurnAround::256-511           61      0.53%     99.99% # Reads before turning the bus around for writes
system.mem_ctrl.rdPerTurnAround::4096-4351            1      0.01%    100.00% # Reads before turning the bus around for writes
system.mem_ctrl.rdPerTurnAround::total          11490                       # Reads before turning the bus around for writes
system.mem_ctrl.wrPerTurnAround::samples        11490                       # Writes before turning the bus around for reads
system.mem_ctrl.wrPerTurnAround::mean       17.327850                       # Writes before turning the bus around for reads
system.mem_ctrl.wrPerTurnAround::gmean      17.302737                       # Writes before turning the bus around for reads
system.mem_ctrl.wrPerTurnAround::stdev       0.921026                       # Writes before turning the bus around for reads
system.mem_ctrl.wrPerTurnAround::16              3605     31.38%     31.38% # Writes before turning the bus around for reads
system.mem_ctrl.wrPerTurnAround::17               515      4.48%     35.86% # Writes before turning the bus around for reads
system.mem_ctrl.wrPerTurnAround::18              7368     64.13%     99.98% # Writes before turning the bus around for reads
system.mem_ctrl.wrPerTurnAround::19                 2      0.02%    100.00% # Writes before turning the bus around for reads
system.mem_ctrl.wrPerTurnAround::total          11490                       # Writes before turning the bus around for reads
system.mem_ctrl.bytesReadWrQ                   648000                       # Total number of bytes read from write queue
system.mem_ctrl.bytesReadSys                 26731264                       # Total read bytes from the system interface side
system.mem_ctrl.bytesWrittenSys              12744000                       # Total written bytes from the system interface side
system.mem_ctrl.avgRdBWSys                      11.52                       # Average system read bandwidth in MiByte/s
system.mem_ctrl.avgWrBWSys                       5.49                       # Average system write bandwidth in MiByte/s
system.mem_ctrl.totGap                   2320147389000                       # Total gap between requests
system.mem_ctrl.avgGap                     3761581.76                       # Average gap between requests
system.mem_ctrl.requestorReadBytes::.cpu.inst      3608000                       # Per-requestor bytes read from memory
system.mem_ctrl.requestorReadBytes::.cpu.data     22475264                       # Per-requestor bytes read from memory
system.mem_ctrl.requestorWriteBytes::.writebacks     12742208                       # Per-requestor bytes write to memory
system.mem_ctrl.requestorReadRate::.cpu.inst 1555073.598920247052                       # Per-requestor bytes read from memory rate (Bytes/sec)
system.mem_ctrl.requestorReadRate::.cpu.data 9686998.246996305883                       # Per-requestor bytes read from memory rate (Bytes/sec)
system.mem_ctrl.requestorWriteRate::.writebacks 5491982.054531697184                       # Per-requestor bytes write to memory rate (Bytes/sec)
system.mem_ctrl.requestorReadAccesses::.cpu.inst        56375                       # Per-requestor read serviced memory accesses
system.mem_ctrl.requestorReadAccesses::.cpu.data       361301                       # Per-requestor read serviced memory accesses
system.mem_ctrl.requestorWriteAccesses::.writebacks       199125                       # Per-requestor write serviced memory accesses
system.mem_ctrl.requestorReadTotalLat::.cpu.inst   1409521500                       # Per-requestor read total memory access latency
system.mem_ctrl.requestorReadTotalLat::.cpu.data  10364520750                       # Per-requestor read total memory access latency
system.mem_ctrl.requestorWriteTotalLat::.writebacks 54240133377500                       # Per-requestor write total memory access latency
system.mem_ctrl.requestorReadAvgLat::.cpu.inst     25002.60                       # Per-requestor read average memory access latency
system.mem_ctrl.requestorReadAvgLat::.cpu.data     28686.66                       # Per-requestor read average memory access latency
system.mem_ctrl.requestorWriteAvgLat::.writebacks 272392383.57                       # Per-requestor write average memory access latency
system.mem_ctrl.dram.bytes_read::.cpu.inst      3608000                       # Number of bytes read from this memory
system.mem_ctrl.dram.bytes_read::.cpu.data     23123264                       # Number of bytes read from this memory
system.mem_ctrl.dram.bytes_read::total       26731264                       # Number of bytes read from this memory
system.mem_ctrl.dram.bytes_inst_read::.cpu.inst      3608000                       # Number of instructions bytes read from this memory
system.mem_ctrl.dram.bytes_inst_read::total      3608000                       # Number of instructions bytes read from this memory
system.mem_ctrl.dram.bytes_written::.writebacks     12744000                       # Number of bytes written to this memory
system.mem_ctrl.dram.bytes_written::total     12744000                       # Number of bytes written to this memory
system.mem_ctrl.dram.num_reads::.cpu.inst        56375                       # Number of read requests responded to by this memory
system.mem_ctrl.dram.num_reads::.cpu.data       361301                       # Number of read requests responded to by this memory
system.mem_ctrl.dram.num_reads::total          417676                       # Number of read requests responded to by this memory
system.mem_ctrl.dram.num_writes::.writebacks       199125                       # Number of write requests responded to by this memory
system.mem_ctrl.dram.num_writes::total         199125                       # Number of write requests responded to by this memory
system.mem_ctrl.dram.bw_read::.cpu.inst       1555074                       # Total read bandwidth from this memory (bytes/s)
system.mem_ctrl.dram.bw_read::.cpu.data       9966291                       # Total read bandwidth from this memory (bytes/s)
system.mem_ctrl.dram.bw_read::total          11521364                       # Total read bandwidth from this memory (bytes/s)
system.mem_ctrl.dram.bw_inst_read::.cpu.inst      1555074                       # Instruction read bandwidth from this memory (bytes/s)
system.mem_ctrl.dram.bw_inst_read::total      1555074                       # Instruction read bandwidth from this memory (bytes/s)
system.mem_ctrl.dram.bw_write::.writebacks      5492754                       # Write bandwidth from this memory (bytes/s)
system.mem_ctrl.dram.bw_write::total          5492754                       # Write bandwidth from this memory (bytes/s)
system.mem_ctrl.dram.bw_total::.writebacks      5492754                       # Total bandwidth to/from this memory (bytes/s)
system.mem_ctrl.dram.bw_total::.cpu.inst      1555074                       # Total bandwidth to/from this memory (bytes/s)
system.mem_ctrl.dram.bw_total::.cpu.data      9966291                       # Total bandwidth to/from this memory (bytes/s)
system.mem_ctrl.dram.bw_total::total         17014119                       # Total bandwidth to/from this memory (bytes/s)
system.mem_ctrl.dram.readBursts                407551                       # Number of DRAM read bursts
system.mem_ctrl.dram.writeBursts               199097                       # Number of DRAM write bursts
system.mem_ctrl.dram.perBankRdBursts::0         22881                       # Per bank write bursts
system.mem_ctrl.dram.perBankRdBursts::1         21929                       # Per bank write bursts
system.mem_ctrl.dram.perBankRdBursts::2         17963                       # Per bank write bursts
system.mem_ctrl.dram.perBankRdBursts::3         21611                       # Per bank write bursts
system.mem_ctrl.dram.perBankRdBursts::4         26673                       # Per bank write bursts
system.mem_ctrl.dram.perBankRdBursts::5         31423                       # Per bank write bursts
system.mem_ctrl.dram.perBankRdBursts::6         23354                       # Per bank write bursts
system.mem_ctrl.dram.perBankRdBursts::7         29912                       # Per bank write bursts
system.mem_ctrl.dram.perBankRdBursts::8         28351                       # Per bank write bursts
system.mem_ctrl.dram.perBankRdBursts::9         30484                       # Per bank write bursts
system.mem_ctrl.dram.perBankRdBursts::10        27687                       # Per bank write bursts
system.mem_ctrl.dram.perBankRdBursts::11        32571                       # Per bank write bursts
system.mem_ctrl.dram.perBankRdBursts::12        23531                       # Per bank write bursts
system.mem_ctrl.dram.perBankRdBursts::13        27324                       # Per bank write bursts
system.mem_ctrl.dram.perBankRdBursts::14        18401                       # Per bank write bursts
system.mem_ctrl.dram.perBankRdBursts::15        23456                       # Per bank write bursts
system.mem_ctrl.dram.perBankWrBursts::0         12545                       # Per bank write bursts
system.mem_ctrl.dram.perBankWrBursts::1          9334                       # Per bank write bursts
system.mem_ctrl.dram.perBankWrBursts::2          7183                       # Per bank write bursts
system.mem_ctrl.dram.perBankWrBursts::3          9726                       # Per bank write bursts
system.mem_ctrl.dram.perBankWrBursts::4         11182                       # Per bank write bursts
system.mem_ctrl.dram.perBankWrBursts::5         20068                       # Per bank write bursts
system.mem_ctrl.dram.perBankWrBursts::6         14361                       # Per bank write bursts
system.mem_ctrl.dram.perBankWrBursts::7         17775                       # Per bank write bursts
system.mem_ctrl.dram.perBankWrBursts::8         15285                       # Per bank write bursts
system.mem_ctrl.dram.perBankWrBursts::9         17443                       # Per bank write bursts
system.mem_ctrl.dram.perBankWrBursts::10        11452                       # Per bank write bursts
system.mem_ctrl.dram.perBankWrBursts::11        10041                       # Per bank write bursts
system.mem_ctrl.dram.perBankWrBursts::12        11563                       # Per bank write bursts
system.mem_ctrl.dram.perBankWrBursts::13        10887                       # Per bank write bursts
system.mem_ctrl.dram.perBankWrBursts::14         8615                       # Per bank write bursts
system.mem_ctrl.dram.perBankWrBursts::15        11637                       # Per bank write bursts
system.mem_ctrl.dram.totQLat               4132461000                       # Total ticks spent queuing
system.mem_ctrl.dram.totBusLat             2037755000                       # Total ticks spent in databus transfers
system.mem_ctrl.dram.totMemAccLat         11774042250                       # Total ticks spent from burst creation until serviced by the DRAM
system.mem_ctrl.dram.avgQLat                 10139.74                       # Average queueing delay per DRAM burst
system.mem_ctrl.dram.avgBusLat                5000.00                       # Average bus latency per DRAM burst
system.mem_ctrl.dram.avgMemAccLat            28889.74                       # Average memory access latency per DRAM burst
system.mem_ctrl.dram.readRowHits               266558                       # Number of row buffer hits during reads
system.mem_ctrl.dram.writeRowHits              166412                       # Number of row buffer hits during writes
system.mem_ctrl.dram.readRowHitRate             65.40                       # Row buffer hit rate for reads
system.mem_ctrl.dram.writeRowHitRate            83.58                       # Row buffer hit rate for writes
system.mem_ctrl.dram.bytesPerActivate::samples       173676                       # Bytes accessed per row activation
system.mem_ctrl.dram.bytesPerActivate::mean   223.550059                       # Bytes accessed per row activation
system.mem_ctrl.dram.bytesPerActivate::gmean   138.208055                       # Bytes accessed per row activation
system.mem_ctrl.dram.bytesPerActivate::stdev   257.962155                       # Bytes accessed per row activation
system.mem_ctrl.dram.bytesPerActivate::0-127        85954     49.49%     49.49% # Bytes accessed per row activation
system.mem_ctrl.dram.bytesPerActivate::128-255        35644     20.52%     70.01% # Bytes accessed per row activation
system.mem_ctrl.dram.bytesPerActivate::256-383        18145     10.45%     80.46% # Bytes accessed per row activation
system.mem_ctrl.dram.bytesPerActivate::384-511        12307      7.09%     87.55% # Bytes accessed per row activation
system.mem_ctrl.dram.bytesPerActivate::512-639         4937      2.84%     90.39% # Bytes accessed per row activation
system.mem_ctrl.dram.bytesPerActivate::640-767         3200      1.84%     92.23% # Bytes accessed per row activation
system.mem_ctrl.dram.bytesPerActivate::768-895         2874      1.65%     93.89% # Bytes accessed per row activation
system.mem_ctrl.dram.bytesPerActivate::896-1023         2119      1.22%     95.11% # Bytes accessed per row activation
system.mem_ctrl.dram.bytesPerActivate::1024-1151         8496      4.89%    100.00% # Bytes accessed per row activation
system.mem_ctrl.dram.bytesPerActivate::total       173676                       # Bytes accessed per row activation
system.mem_ctrl.dram.bytesRead               26083264                       # Total number of bytes read from DRAM
system.mem_ctrl.dram.bytesWritten            12742208                       # Total number of bytes written to DRAM
system.mem_ctrl.dram.avgRdBW                11.242072                       # Average DRAM read bandwidth in MiBytes/s
system.mem_ctrl.dram.avgWrBW                 5.491982                       # Average DRAM write bandwidth in MiBytes/s
system.mem_ctrl.dram.peakBW                  12800.00                       # Theoretical peak bandwidth in MiByte/s
system.mem_ctrl.dram.busUtil                     0.13                       # Data bus utilization in percentage
system.mem_ctrl.dram.busUtilRead                 0.09                       # Data bus utilization in percentage for reads
system.mem_ctrl.dram.busUtilWrite                0.04                       # Data bus utilization in percentage for writes
system.mem_ctrl.dram.pageHitRate                71.37                       # Row buffer hit rate, read and write combined
system.mem_ctrl.dram.power_state.pwrStateResidencyTicks::UNDEFINED 2320147421000                       # Cumulative time (in ticks) in various power states
system.mem_ctrl.dram.rank0.actEnergy        572720820                       # Energy for activate commands per rank (pJ)
system.mem_ctrl.dram.rank0.preEnergy        304404540                       # Energy for precharge commands per rank (pJ)
system.mem_ctrl.dram.rank0.readEnergy      1397626440                       # Energy for read commands per rank (pJ)
system.mem_ctrl.dram.rank0.writeEnergy      533348280                       # Energy for write commands per rank (pJ)
system.mem_ctrl.dram.rank0.refreshEnergy 183150427200.000031                       # Energy for refresh commands per rank (pJ)
system.mem_ctrl.dram.rank0.actBackEnergy 116054472090                       # Energy for active background per rank (pJ)
system.mem_ctrl.dram.rank0.preBackEnergy 793206528000                       # Energy for precharge background per rank (pJ)
system.mem_ctrl.dram.rank0.actPowerDownEnergy            0                       # Energy for active power-down per rank (pJ)
system.mem_ctrl.dram.rank0.prePowerDownEnergy            0                       # Energy for precharge power-down per rank (pJ)
system.mem_ctrl.dram.rank0.selfRefreshEnergy            0                       # Energy for self refresh per rank (pJ)
system.mem_ctrl.dram.rank0.totalEnergy   1095219527370                       # Total energy per rank (pJ)
system.mem_ctrl.dram.rank0.averagePower    472.047387                       # Core power per rank (mW)
system.mem_ctrl.dram.rank0.totalIdleTime            0                       # Total Idle time Per DRAM Rank
system.mem_ctrl.dram.rank0.pwrStateTime::IDLE 2061026967250                       # Time in different power states
system.mem_ctrl.dram.rank0.pwrStateTime::REF  77474800000                       # Time in different power states
system.mem_ctrl.dram.rank0.pwrStateTime::SREF            0                       # Time in different power states
system.mem_ctrl.dram.rank0.pwrStateTime::PRE_PDN            0                       # Time in different power states
system.mem_ctrl.dram.rank0.pwrStateTime::ACT 181645653750                       # Time in different power states
system.mem_ctrl.dram.rank0.pwrStateTime::ACT_PDN            0                       # Time in different power states
system.mem_ctrl.dram.rank1.actEnergy        667340100                       # Energy for activate commands per rank (pJ)
system.mem_ctrl.dram.rank1.preEnergy        354695880                       # Energy for precharge commands per rank (pJ)
system.mem_ctrl.dram.rank1.readEnergy      1512287700                       # Energy for read commands per rank (pJ)
system.mem_ctrl.dram.rank1.writeEnergy      505938060                       # Energy for write commands per rank (pJ)
system.mem_ctrl.dram.rank1.refreshEnergy 183150427200.000031                       # Energy for refresh commands per rank (pJ)
system.mem_ctrl.dram.rank1.actBackEnergy 113229504780                       # Energy for active background per rank (pJ)
system.mem_ctrl.dram.rank1.preBackEnergy 795585447840                       # Energy for precharge background per rank (pJ)
system.mem_ctrl.dram.rank1.actPowerDownEnergy            0                       # Energy for active power-down per rank (pJ)
system.mem_ctrl.dram.rank1.prePowerDownEnergy            0                       # Energy for precharge power-down per rank (pJ)
system.mem_ctrl.dram.rank1.selfRefreshEnergy            0                       # Energy for self refresh per rank (pJ)
system.mem_ctrl.dram.rank1.totalEnergy   1095005641560                       # Total energy per rank (pJ)
system.mem_ctrl.dram.rank1.averagePower    471.955201                       # Core power per rank (mW)
system.mem_ctrl.dram.rank1.totalIdleTime            0                       # Total Idle time Per DRAM Rank
system.mem_ctrl.dram.rank1.pwrStateTime::IDLE 2067238163000                       # Time in different power states
system.mem_ctrl.dram.rank1.pwrStateTime::REF  77474800000                       # Time in different power states
system.mem_ctrl.dram.rank1.pwrStateTime::SREF            0                       # Time in different power states
system.mem_ctrl.dram.rank1.pwrStateTime::PRE_PDN            0                       # Time in different power states
system.mem_ctrl.dram.rank1.pwrStateTime::ACT 175434458000                       # Time in different power states
system.mem_ctrl.dram.rank1.pwrStateTime::ACT_PDN            0                       # Time in different power states
system.mem_ctrl.power_state.pwrStateResidencyTicks::UNDEFINED 2320147421000                       # Cumulative time (in ticks) in various power states
system.membus.trans_dist::ReadResp             303868                       # Transaction distribution
system.membus.trans_dist::WritebackDirty       199125                       # Transaction distribution
system.membus.trans_dist::CleanEvict           214427                       # Transaction distribution
system.membus.trans_dist::ReadExReq            113808                       # Transaction distribution
system.membus.trans_dist::ReadExResp           113808                       # Transaction distribution
system.membus.trans_dist::ReadSharedReq        303868                       # Transaction distribution
system.membus.pkt_count_system.l2cache.mem_side_port::system.mem_ctrl.port      1248904                       # Packet count per connected requestor and responder (bytes)
system.membus.pkt_count_system.l2cache.mem_side_port::total      1248904                       # Packet count per connected requestor and responder (bytes)
system.membus.pkt_count::total                1248904                       # Packet count per connected requestor and responder (bytes)
system.membus.pkt_size_system.l2cache.mem_side_port::system.mem_ctrl.port     39475264                       # Cumulative packet size per connected requestor and responder (bytes)
system.membus.pkt_size_system.l2cache.mem_side_port::total     39475264                       # Cumulative packet size per connected requestor and responder (bytes)
system.membus.pkt_size::total                39475264                       # Cumulative packet size per connected requestor and responder (bytes)
system.membus.snoops                                0                       # Total snoops (count)
system.membus.snoopTraffic                          0                       # Total snoop traffic (bytes)
system.membus.snoop_fanout::samples            417676                       # Request fanout histogram
system.membus.snoop_fanout::mean                    0                       # Request fanout histogram
system.membus.snoop_fanout::stdev                   0                       # Request fanout histogram
system.membus.snoop_fanout::underflows              0      0.00%      0.00% # Request fanout histogram
system.membus.snoop_fanout::0                  417676    100.00%    100.00% # Request fanout histogram
system.membus.snoop_fanout::1                       0      0.00%    100.00% # Request fanout histogram
system.membus.snoop_fanout::overflows               0      0.00%    100.00% # Request fanout histogram
system.membus.snoop_fanout::min_value               0                       # Request fanout histogram
system.membus.snoop_fanout::max_value               0                       # Request fanout histogram
system.membus.snoop_fanout::total              417676                       # Request fanout histogram
system.membus.power_state.pwrStateResidencyTicks::UNDEFINED 2320147421000                       # Cumulative time (in ticks) in various power states
system.membus.reqLayer2.occupancy          1627728000                       # Layer occupancy (ticks)
system.membus.reqLayer2.utilization               0.1                       # Layer utilization (%)
system.membus.respLayer0.occupancy         2227298750                       # Layer occupancy (ticks)
system.membus.respLayer0.utilization              0.1                       # Layer utilization (%)

---------- End Simulation Statistics   ----------
