
---------- Begin Simulation Statistics ----------
final_tick                               2615826595000                       # Number of ticks from beginning of simulation (restored from checkpoints and never reset)
host_inst_rate                                 451405                       # Simulator instruction rate (inst/s)
host_mem_usage                                 667736                       # Number of bytes of host memory used
host_op_rate                                   767324                       # Simulator op (including micro ops) rate (op/s)
host_seconds                                  1274.81                       # Real time elapsed on the host
host_tick_rate                             2051937521                       # Simulator tick rate (ticks/s)
sim_freq                                 1000000000000                       # Frequency of simulated ticks
sim_insts                                   575454665                       # Number of instructions simulated
sim_ops                                     978190939                       # Number of ops (including micro ops) simulated
sim_seconds                                  2.615827                       # Number of seconds simulated
sim_ticks                                2615826595000                       # Number of ticks simulated
system.cpu.Branches                          31851452                       # Number of branches fetched
system.cpu.committedInsts                   575454665                       # Number of instructions committed
system.cpu.committedOps                     978190939                       # Number of ops (including micro ops) committed
system.cpu.idle_fraction                     0.000000                       # Percentage of idle cycles
system.cpu.not_idle_fraction                 1.000000                       # Percentage of non-idle cycles
system.cpu.numCycles                       2615826595                       # number of cpu cycles simulated
system.cpu.numWorkItemsCompleted                    0                       # number of work items this cpu completed
system.cpu.numWorkItemsStarted                      0                       # number of work items this cpu started
system.cpu.num_busy_cycles               2615826594.999000                       # Number of busy cycles
system.cpu.num_cc_register_reads            155141559                       # number of times the CC registers were read
system.cpu.num_cc_register_writes           162654618                       # number of times the CC registers were written
system.cpu.num_conditional_control_insts     29705129                       # number of instructions that are conditional controls
system.cpu.num_fp_alu_accesses              723696043                       # Number of float alu accesses
system.cpu.num_fp_insts                     723696043                       # number of float instructions
system.cpu.num_fp_register_reads           1022020909                       # number of times the floating registers were read
system.cpu.num_fp_register_writes           620017342                       # number of times the floating registers were written
system.cpu.num_func_calls                     1608984                       # number of times a function call or return occured
system.cpu.num_idle_cycles                   0.001000                       # Number of idle cycles
system.cpu.num_int_alu_accesses             539304694                       # Number of integer alu accesses
system.cpu.num_int_insts                    539304694                       # number of integer instructions
system.cpu.num_int_register_reads          1243037608                       # number of times the integer registers were read
system.cpu.num_int_register_writes          221683351                       # number of times the integer registers were written
system.cpu.num_load_insts                   187986149                       # Number of load instructions
system.cpu.num_mem_refs                     292192202                       # number of memory refs
system.cpu.num_store_insts                  104206053                       # Number of store instructions
system.cpu.num_vec_alu_accesses                     0                       # Number of vector alu accesses
system.cpu.num_vec_insts                            0                       # number of vector instructions
system.cpu.num_vec_register_reads                   0                       # number of times the vector registers were read
system.cpu.num_vec_register_writes                  0                       # number of times the vector registers were written
system.cpu.op_class::No_OpClass               1700260      0.17%      0.17% # Class of executed instruction
system.cpu.op_class::IntAlu                 388213716     39.69%     39.86% # Class of executed instruction
system.cpu.op_class::IntMult                  1511480      0.15%     40.02% # Class of executed instruction
system.cpu.op_class::IntDiv                    141309      0.01%     40.03% # Class of executed instruction
system.cpu.op_class::FloatAdd                81130357      8.29%     48.32% # Class of executed instruction
system.cpu.op_class::FloatCmp                       0      0.00%     48.32% # Class of executed instruction
system.cpu.op_class::FloatCvt                       0      0.00%     48.32% # Class of executed instruction
system.cpu.op_class::FloatMult                      0      0.00%     48.32% # Class of executed instruction
system.cpu.op_class::FloatMultAcc                   0      0.00%     48.32% # Class of executed instruction
system.cpu.op_class::FloatDiv                       0      0.00%     48.32% # Class of executed instruction
system.cpu.op_class::FloatMisc                      0      0.00%     48.32% # Class of executed instruction
system.cpu.op_class::FloatSqrt                      0      0.00%     48.32% # Class of executed instruction
system.cpu.op_class::SimdAdd                   491562      0.05%     48.37% # Class of executed instruction
system.cpu.op_class::SimdAddAcc                     0      0.00%     48.37% # Class of executed instruction
system.cpu.op_class::SimdAlu                  2949683      0.30%     48.68% # Class of executed instruction
system.cpu.op_class::SimdCmp                       18      0.00%     48.68% # Class of executed instruction
system.cpu.op_class::SimdCvt                      816      0.00%     48.68% # Class of executed instruction
system.cpu.op_class::SimdMisc                 2637173      0.27%     48.95% # Class of executed instruction
system.cpu.op_class::SimdMult                  245760      0.03%     48.97% # Class of executed instruction
system.cpu.op_class::SimdMultAcc                    0      0.00%     48.97% # Class of executed instruction
system.cpu.op_class::SimdShift                 368643      0.04%     49.01% # Class of executed instruction
system.cpu.op_class::SimdShiftAcc                   0      0.00%     49.01% # Class of executed instruction
system.cpu.op_class::SimdDiv                        0      0.00%     49.01% # Class of executed instruction
system.cpu.op_class::SimdSqrt                       0      0.00%     49.01% # Class of executed instruction
system.cpu.op_class::SimdFloatAdd           119030165     12.17%     61.18% # Class of executed instruction
system.cpu.op_class::SimdFloatAlu                   0      0.00%     61.18% # Class of executed instruction
system.cpu.op_class::SimdFloatCmp                   0      0.00%     61.18% # Class of executed instruction
system.cpu.op_class::SimdFloatCvt             1852644      0.19%     61.37% # Class of executed instruction
system.cpu.op_class::SimdFloatDiv                  70      0.00%     61.37% # Class of executed instruction
system.cpu.op_class::SimdFloatMisc                  0      0.00%     61.37% # Class of executed instruction
system.cpu.op_class::SimdFloatMult           85725170      8.76%     70.13% # Class of executed instruction
system.cpu.op_class::SimdFloatMultAcc               0      0.00%     70.13% # Class of executed instruction
system.cpu.op_class::SimdFloatSqrt                  6      0.00%     70.13% # Class of executed instruction
system.cpu.op_class::SimdReduceAdd                  0      0.00%     70.13% # Class of executed instruction
system.cpu.op_class::SimdReduceAlu                  0      0.00%     70.13% # Class of executed instruction
system.cpu.op_class::SimdReduceCmp                  0      0.00%     70.13% # Class of executed instruction
system.cpu.op_class::SimdFloatReduceAdd             0      0.00%     70.13% # Class of executed instruction
system.cpu.op_class::SimdFloatReduceCmp             0      0.00%     70.13% # Class of executed instruction
system.cpu.op_class::SimdAes                        0      0.00%     70.13% # Class of executed instruction
system.cpu.op_class::SimdAesMix                     0      0.00%     70.13% # Class of executed instruction
system.cpu.op_class::SimdSha1Hash                   0      0.00%     70.13% # Class of executed instruction
system.cpu.op_class::SimdSha1Hash2                  0      0.00%     70.13% # Class of executed instruction
system.cpu.op_class::SimdSha256Hash                 0      0.00%     70.13% # Class of executed instruction
system.cpu.op_class::SimdSha256Hash2                0      0.00%     70.13% # Class of executed instruction
system.cpu.op_class::SimdShaSigma2                  0      0.00%     70.13% # Class of executed instruction
system.cpu.op_class::SimdShaSigma3                  0      0.00%     70.13% # Class of executed instruction
system.cpu.op_class::SimdPredAlu                    0      0.00%     70.13% # Class of executed instruction
system.cpu.op_class::MemRead                  5927088      0.61%     70.74% # Class of executed instruction
system.cpu.op_class::MemWrite                 1856497      0.19%     70.93% # Class of executed instruction
system.cpu.op_class::FloatMemRead           182059061     18.61%     89.54% # Class of executed instruction
system.cpu.op_class::FloatMemWrite          102349556     10.46%    100.00% # Class of executed instruction
system.cpu.op_class::IprAccess                      0      0.00%    100.00% # Class of executed instruction
system.cpu.op_class::InstPrefetch                   0      0.00%    100.00% # Class of executed instruction
system.cpu.op_class::total                  978191034                       # Class of executed instruction
system.cpu.workload.numSyscalls                    72                       # Number of system calls
system.l2bus.snoop_filter.hit_multi_requests            0                       # Number of requests hitting in the snoop filter with multiple (>1) holders of the requested data.
system.l2bus.snoop_filter.hit_multi_snoops            0                       # Number of snoops hitting in the snoop filter with multiple (>1) holders of the requested data.
system.l2bus.snoop_filter.hit_single_requests      7979967                       # Number of requests hitting in the snoop filter with a single holder of the requested data.
system.l2bus.snoop_filter.hit_single_snoops        12710                       # Number of snoops hitting in the snoop filter with a single holder of the requested data.
system.l2bus.snoop_filter.tot_requests       15961214                       # Total number of requests made to the snoop filter.
system.l2bus.snoop_filter.tot_snoops            12710                       # Total number of snoops made to the snoop filter.
system.membus.snoop_filter.hit_multi_requests            0                       # Number of requests hitting in the snoop filter with multiple (>1) holders of the requested data.
system.membus.snoop_filter.hit_multi_snoops            0                       # Number of snoops hitting in the snoop filter with multiple (>1) holders of the requested data.
system.membus.snoop_filter.hit_single_requests      2872838                       # Number of requests hitting in the snoop filter with a single holder of the requested data.
system.membus.snoop_filter.hit_single_snoops            0                       # Number of snoops hitting in the snoop filter with a single holder of the requested data.
system.membus.snoop_filter.tot_requests       5762067                       # Total number of requests made to the snoop filter.
system.membus.snoop_filter.tot_snoops               0                       # Total number of snoops made to the snoop filter.
system.clk_domain.clock                          1000                       # Clock period in ticks
system.clk_domain.voltage_domain.voltage            1                       # Voltage in Volts
system.cpu.dcache.demand_hits::.cpu.data    284222134                       # number of demand (read+write) hits
system.cpu.dcache.demand_hits::total        284222134                       # number of demand (read+write) hits
system.cpu.dcache.overall_hits::.cpu.data    284222134                       # number of overall hits
system.cpu.dcache.overall_hits::total       284222134                       # number of overall hits
system.cpu.dcache.demand_misses::.cpu.data      7970134                       # number of demand (read+write) misses
system.cpu.dcache.demand_misses::total        7970134                       # number of demand (read+write) misses
system.cpu.dcache.overall_misses::.cpu.data      7970134                       # number of overall misses
system.cpu.dcache.overall_misses::total       7970134                       # number of overall misses
system.cpu.dcache.demand_miss_latency::.cpu.data 434973243000                       # number of demand (read+write) miss cycles
system.cpu.dcache.demand_miss_latency::total 434973243000                       # number of demand (read+write) miss cycles
system.cpu.dcache.overall_miss_latency::.cpu.data 434973243000                       # number of overall miss cycles
system.cpu.dcache.overall_miss_latency::total 434973243000                       # number of overall miss cycles
system.cpu.dcache.demand_accesses::.cpu.data    292192268                       # number of demand (read+write) accesses
system.cpu.dcache.demand_accesses::total    292192268                       # number of demand (read+write) accesses
system.cpu.dcache.overall_accesses::.cpu.data    292192268                       # number of overall (read+write) accesses
system.cpu.dcache.overall_accesses::total    292192268                       # number of overall (read+write) accesses
system.cpu.dcache.demand_miss_rate::.cpu.data     0.027277                       # miss rate for demand accesses
system.cpu.dcache.demand_miss_rate::total     0.027277                       # miss rate for demand accesses
system.cpu.dcache.overall_miss_rate::.cpu.data     0.027277                       # miss rate for overall accesses
system.cpu.dcache.overall_miss_rate::total     0.027277                       # miss rate for overall accesses
system.cpu.dcache.demand_avg_miss_latency::.cpu.data 54575.398983                       # average overall miss latency
system.cpu.dcache.demand_avg_miss_latency::total 54575.398983                       # average overall miss latency
system.cpu.dcache.overall_avg_miss_latency::.cpu.data 54575.398983                       # average overall miss latency
system.cpu.dcache.overall_avg_miss_latency::total 54575.398983                       # average overall miss latency
system.cpu.dcache.blocked_cycles::no_mshrs            0                       # number of cycles access was blocked
system.cpu.dcache.blocked_cycles::no_targets            0                       # number of cycles access was blocked
system.cpu.dcache.blocked::no_mshrs                 0                       # number of cycles access was blocked
system.cpu.dcache.blocked::no_targets               0                       # number of cycles access was blocked
system.cpu.dcache.avg_blocked_cycles::no_mshrs          nan                       # average number of cycles each access was blocked
system.cpu.dcache.avg_blocked_cycles::no_targets          nan                       # average number of cycles each access was blocked
system.cpu.dcache.writebacks::.writebacks      6562856                       # number of writebacks
system.cpu.dcache.writebacks::total           6562856                       # number of writebacks
system.cpu.dcache.demand_mshr_misses::.cpu.data      7970134                       # number of demand (read+write) MSHR misses
system.cpu.dcache.demand_mshr_misses::total      7970134                       # number of demand (read+write) MSHR misses
system.cpu.dcache.overall_mshr_misses::.cpu.data      7970134                       # number of overall MSHR misses
system.cpu.dcache.overall_mshr_misses::total      7970134                       # number of overall MSHR misses
system.cpu.dcache.demand_mshr_miss_latency::.cpu.data 419032975000                       # number of demand (read+write) MSHR miss cycles
system.cpu.dcache.demand_mshr_miss_latency::total 419032975000                       # number of demand (read+write) MSHR miss cycles
system.cpu.dcache.overall_mshr_miss_latency::.cpu.data 419032975000                       # number of overall MSHR miss cycles
system.cpu.dcache.overall_mshr_miss_latency::total 419032975000                       # number of overall MSHR miss cycles
system.cpu.dcache.demand_mshr_miss_rate::.cpu.data     0.027277                       # mshr miss rate for demand accesses
system.cpu.dcache.demand_mshr_miss_rate::total     0.027277                       # mshr miss rate for demand accesses
system.cpu.dcache.overall_mshr_miss_rate::.cpu.data     0.027277                       # mshr miss rate for overall accesses
system.cpu.dcache.overall_mshr_miss_rate::total     0.027277                       # mshr miss rate for overall accesses
system.cpu.dcache.demand_avg_mshr_miss_latency::.cpu.data 52575.398983                       # average overall mshr miss latency
system.cpu.dcache.demand_avg_mshr_miss_latency::total 52575.398983                       # average overall mshr miss latency
system.cpu.dcache.overall_avg_mshr_miss_latency::.cpu.data 52575.398983                       # average overall mshr miss latency
system.cpu.dcache.overall_avg_mshr_miss_latency::total 52575.398983                       # average overall mshr miss latency
system.cpu.dcache.replacements                7969110                       # number of replacements
system.cpu.dcache.ReadReq_hits::.cpu.data    184112552                       # number of ReadReq hits
system.cpu.dcache.ReadReq_hits::total       184112552                       # number of ReadReq hits
system.cpu.dcache.ReadReq_misses::.cpu.data      3873643                       # number of ReadReq misses
system.cpu.dcache.ReadReq_misses::total       3873643                       # number of ReadReq misses
system.cpu.dcache.ReadReq_miss_latency::.cpu.data 272563574000                       # number of ReadReq miss cycles
system.cpu.dcache.ReadReq_miss_latency::total 272563574000                       # number of ReadReq miss cycles
system.cpu.dcache.ReadReq_accesses::.cpu.data    187986195                       # number of ReadReq accesses(hits+misses)
system.cpu.dcache.ReadReq_accesses::total    187986195                       # number of ReadReq accesses(hits+misses)
system.cpu.dcache.ReadReq_miss_rate::.cpu.data     0.020606                       # miss rate for ReadReq accesses
system.cpu.dcache.ReadReq_miss_rate::total     0.020606                       # miss rate for ReadReq accesses
system.cpu.dcache.ReadReq_avg_miss_latency::.cpu.data 70363.627727                       # average ReadReq miss latency
system.cpu.dcache.ReadReq_avg_miss_latency::total 70363.627727                       # average ReadReq miss latency
system.cpu.dcache.ReadReq_mshr_misses::.cpu.data      3873643                       # number of ReadReq MSHR misses
system.cpu.dcache.ReadReq_mshr_misses::total      3873643                       # number of ReadReq MSHR misses
system.cpu.dcache.ReadReq_mshr_miss_latency::.cpu.data 264816288000                       # number of ReadReq MSHR miss cycles
system.cpu.dcache.ReadReq_mshr_miss_latency::total 264816288000                       # number of ReadReq MSHR miss cycles
system.cpu.dcache.ReadReq_mshr_miss_rate::.cpu.data     0.020606                       # mshr miss rate for ReadReq accesses
system.cpu.dcache.ReadReq_mshr_miss_rate::total     0.020606                       # mshr miss rate for ReadReq accesses
system.cpu.dcache.ReadReq_avg_mshr_miss_latency::.cpu.data 68363.627727                       # average ReadReq mshr miss latency
system.cpu.dcache.ReadReq_avg_mshr_miss_latency::total 68363.627727                       # average ReadReq mshr miss latency
system.cpu.dcache.WriteReq_hits::.cpu.data    100109582                       # number of WriteReq hits
system.cpu.dcache.WriteReq_hits::total      100109582                       # number of WriteReq hits
system.cpu.dcache.WriteReq_misses::.cpu.data      4096491                       # number of WriteReq misses
system.cpu.dcache.WriteReq_misses::total      4096491                       # number of WriteReq misses
system.cpu.dcache.WriteReq_miss_latency::.cpu.data 162409669000                       # number of WriteReq miss cycles
system.cpu.dcache.WriteReq_miss_latency::total 162409669000                       # number of WriteReq miss cycles
system.cpu.dcache.WriteReq_accesses::.cpu.data    104206073                       # number of WriteReq accesses(hits+misses)
system.cpu.dcache.WriteReq_accesses::total    104206073                       # number of WriteReq accesses(hits+misses)
system.cpu.dcache.WriteReq_miss_rate::.cpu.data     0.039311                       # miss rate for WriteReq accesses
system.cpu.dcache.WriteReq_miss_rate::total     0.039311                       # miss rate for WriteReq accesses
system.cpu.dcache.WriteReq_avg_miss_latency::.cpu.data 39646.045603                       # average WriteReq miss latency
system.cpu.dcache.WriteReq_avg_miss_latency::total 39646.045603                       # average WriteReq miss latency
system.cpu.dcache.WriteReq_mshr_misses::.cpu.data      4096491                       # number of WriteReq MSHR misses
system.cpu.dcache.WriteReq_mshr_misses::total      4096491                       # number of WriteReq MSHR misses
system.cpu.dcache.WriteReq_mshr_miss_latency::.cpu.data 154216687000                       # number of WriteReq MSHR miss cycles
system.cpu.dcache.WriteReq_mshr_miss_latency::total 154216687000                       # number of WriteReq MSHR miss cycles
system.cpu.dcache.WriteReq_mshr_miss_rate::.cpu.data     0.039311                       # mshr miss rate for WriteReq accesses
system.cpu.dcache.WriteReq_mshr_miss_rate::total     0.039311                       # mshr miss rate for WriteReq accesses
system.cpu.dcache.WriteReq_avg_mshr_miss_latency::.cpu.data 37646.045603                       # average WriteReq mshr miss latency
system.cpu.dcache.WriteReq_avg_mshr_miss_latency::total 37646.045603                       # average WriteReq mshr miss latency
system.cpu.dcache.power_state.pwrStateResidencyTicks::UNDEFINED 2615826595000                       # Cumulative time (in ticks) in various power states
system.cpu.dcache.tags.tagsinuse          1023.902266                       # Cycle average of tags in use
system.cpu.dcache.tags.total_refs           292192268                       # Total number of references to valid blocks.
system.cpu.dcache.tags.sampled_refs           7970134                       # Sample count of references to valid blocks.
system.cpu.dcache.tags.avg_refs             36.660898                       # Average number of references to valid blocks.
system.cpu.dcache.tags.warmup_cycle            224000                       # Cycle when the warmup percentage was hit.
system.cpu.dcache.tags.occ_blocks::.cpu.data  1023.902266                       # Average occupied blocks per requestor
system.cpu.dcache.tags.occ_percent::.cpu.data     0.999905                       # Average percentage of cache occupancy
system.cpu.dcache.tags.occ_percent::total     0.999905                       # Average percentage of cache occupancy
system.cpu.dcache.tags.occ_task_id_blocks::1024         1024                       # Occupied blocks per task id
system.cpu.dcache.tags.age_task_id_blocks_1024::0           27                       # Occupied blocks per task id
system.cpu.dcache.tags.age_task_id_blocks_1024::1           94                       # Occupied blocks per task id
system.cpu.dcache.tags.age_task_id_blocks_1024::2          864                       # Occupied blocks per task id
system.cpu.dcache.tags.age_task_id_blocks_1024::3           28                       # Occupied blocks per task id
system.cpu.dcache.tags.age_task_id_blocks_1024::4           11                       # Occupied blocks per task id
system.cpu.dcache.tags.occ_task_id_percent::1024            1                       # Percentage of cache occupancy per task id
system.cpu.dcache.tags.tag_accesses         592354670                       # Number of tag accesses
system.cpu.dcache.tags.data_accesses        592354670                       # Number of data accesses
system.cpu.dcache.tags.power_state.pwrStateResidencyTicks::UNDEFINED 2615826595000                       # Cumulative time (in ticks) in various power states
system.cpu.dtb.rdAccesses                   187986196                       # TLB accesses on read requests
system.cpu.dtb.wrAccesses                   104206095                       # TLB accesses on write requests
system.cpu.dtb.rdMisses                        108733                       # TLB misses on read requests
system.cpu.dtb.wrMisses                         99901                       # TLB misses on write requests
system.cpu.dtb.walker.power_state.pwrStateResidencyTicks::UNDEFINED 2615826595000                       # Cumulative time (in ticks) in various power states
system.cpu.icache.demand_hits::.cpu.inst    805853271                       # number of demand (read+write) hits
system.cpu.icache.demand_hits::total        805853271                       # number of demand (read+write) hits
system.cpu.icache.overall_hits::.cpu.inst    805853271                       # number of overall hits
system.cpu.icache.overall_hits::total       805853271                       # number of overall hits
system.cpu.icache.demand_misses::.cpu.inst        11113                       # number of demand (read+write) misses
system.cpu.icache.demand_misses::total          11113                       # number of demand (read+write) misses
system.cpu.icache.overall_misses::.cpu.inst        11113                       # number of overall misses
system.cpu.icache.overall_misses::total         11113                       # number of overall misses
system.cpu.icache.demand_miss_latency::.cpu.inst    703208000                       # number of demand (read+write) miss cycles
system.cpu.icache.demand_miss_latency::total    703208000                       # number of demand (read+write) miss cycles
system.cpu.icache.overall_miss_latency::.cpu.inst    703208000                       # number of overall miss cycles
system.cpu.icache.overall_miss_latency::total    703208000                       # number of overall miss cycles
system.cpu.icache.demand_accesses::.cpu.inst    805864384                       # number of demand (read+write) accesses
system.cpu.icache.demand_accesses::total    805864384                       # number of demand (read+write) accesses
system.cpu.icache.overall_accesses::.cpu.inst    805864384                       # number of overall (read+write) accesses
system.cpu.icache.overall_accesses::total    805864384                       # number of overall (read+write) accesses
system.cpu.icache.demand_miss_rate::.cpu.inst     0.000014                       # miss rate for demand accesses
system.cpu.icache.demand_miss_rate::total     0.000014                       # miss rate for demand accesses
system.cpu.icache.overall_miss_rate::.cpu.inst     0.000014                       # miss rate for overall accesses
system.cpu.icache.overall_miss_rate::total     0.000014                       # miss rate for overall accesses
system.cpu.icache.demand_avg_miss_latency::.cpu.inst 63277.962746                       # average overall miss latency
system.cpu.icache.demand_avg_miss_latency::total 63277.962746                       # average overall miss latency
system.cpu.icache.overall_avg_miss_latency::.cpu.inst 63277.962746                       # average overall miss latency
system.cpu.icache.overall_avg_miss_latency::total 63277.962746                       # average overall miss latency
system.cpu.icache.blocked_cycles::no_mshrs            0                       # number of cycles access was blocked
system.cpu.icache.blocked_cycles::no_targets            0                       # number of cycles access was blocked
system.cpu.icache.blocked::no_mshrs                 0                       # number of cycles access was blocked
system.cpu.icache.blocked::no_targets               0                       # number of cycles access was blocked
system.cpu.icache.avg_blocked_cycles::no_mshrs          nan                       # average number of cycles each access was blocked
system.cpu.icache.avg_blocked_cycles::no_targets          nan                       # average number of cycles each access was blocked
system.cpu.icache.demand_mshr_misses::.cpu.inst        11113                       # number of demand (read+write) MSHR misses
system.cpu.icache.demand_mshr_misses::total        11113                       # number of demand (read+write) MSHR misses
system.cpu.icache.overall_mshr_misses::.cpu.inst        11113                       # number of overall MSHR misses
system.cpu.icache.overall_mshr_misses::total        11113                       # number of overall MSHR misses
system.cpu.icache.demand_mshr_miss_latency::.cpu.inst    680982000                       # number of demand (read+write) MSHR miss cycles
system.cpu.icache.demand_mshr_miss_latency::total    680982000                       # number of demand (read+write) MSHR miss cycles
system.cpu.icache.overall_mshr_miss_latency::.cpu.inst    680982000                       # number of overall MSHR miss cycles
system.cpu.icache.overall_mshr_miss_latency::total    680982000                       # number of overall MSHR miss cycles
system.cpu.icache.demand_mshr_miss_rate::.cpu.inst     0.000014                       # mshr miss rate for demand accesses
system.cpu.icache.demand_mshr_miss_rate::total     0.000014                       # mshr miss rate for demand accesses
system.cpu.icache.overall_mshr_miss_rate::.cpu.inst     0.000014                       # mshr miss rate for overall accesses
system.cpu.icache.overall_mshr_miss_rate::total     0.000014                       # mshr miss rate for overall accesses
system.cpu.icache.demand_avg_mshr_miss_latency::.cpu.inst 61277.962746                       # average overall mshr miss latency
system.cpu.icache.demand_avg_mshr_miss_latency::total 61277.962746                       # average overall mshr miss latency
system.cpu.icache.overall_avg_mshr_miss_latency::.cpu.inst 61277.962746                       # average overall mshr miss latency
system.cpu.icache.overall_avg_mshr_miss_latency::total 61277.962746                       # average overall mshr miss latency
system.cpu.icache.replacements                  10857                       # number of replacements
system.cpu.icache.ReadReq_hits::.cpu.inst    805853271                       # number of ReadReq hits
system.cpu.icache.ReadReq_hits::total       805853271                       # number of ReadReq hits
system.cpu.icache.ReadReq_misses::.cpu.inst        11113                       # number of ReadReq misses
system.cpu.icache.ReadReq_misses::total         11113                       # number of ReadReq misses
system.cpu.icache.ReadReq_miss_latency::.cpu.inst    703208000                       # number of ReadReq miss cycles
system.cpu.icache.ReadReq_miss_latency::total    703208000                       # number of ReadReq miss cycles
system.cpu.icache.ReadReq_accesses::.cpu.inst    805864384                       # number of ReadReq accesses(hits+misses)
system.cpu.icache.ReadReq_accesses::total    805864384                       # number of ReadReq accesses(hits+misses)
system.cpu.icache.ReadReq_miss_rate::.cpu.inst     0.000014                       # miss rate for ReadReq accesses
system.cpu.icache.ReadReq_miss_rate::total     0.000014                       # miss rate for ReadReq accesses
system.cpu.icache.ReadReq_avg_miss_latency::.cpu.inst 63277.962746                       # average ReadReq miss latency
system.cpu.icache.ReadReq_avg_miss_latency::total 63277.962746                       # average ReadReq miss latency
system.cpu.icache.ReadReq_mshr_misses::.cpu.inst        11113                       # number of ReadReq MSHR misses
system.cpu.icache.ReadReq_mshr_misses::total        11113                       # number of ReadReq MSHR misses
system.cpu.icache.ReadReq_mshr_miss_latency::.cpu.inst    680982000                       # number of ReadReq MSHR miss cycles
system.cpu.icache.ReadReq_mshr_miss_latency::total    680982000                       # number of ReadReq MSHR miss cycles
system.cpu.icache.ReadReq_mshr_miss_rate::.cpu.inst     0.000014                       # mshr miss rate for ReadReq accesses
system.cpu.icache.ReadReq_mshr_miss_rate::total     0.000014                       # mshr miss rate for ReadReq accesses
system.cpu.icache.ReadReq_avg_mshr_miss_latency::.cpu.inst 61277.962746                       # average ReadReq mshr miss latency
system.cpu.icache.ReadReq_avg_mshr_miss_latency::total 61277.962746                       # average ReadReq mshr miss latency
system.cpu.icache.power_state.pwrStateResidencyTicks::UNDEFINED 2615826595000                       # Cumulative time (in ticks) in various power states
system.cpu.icache.tags.tagsinuse           255.995146                       # Cycle average of tags in use
system.cpu.icache.tags.total_refs           805864384                       # Total number of references to valid blocks.
system.cpu.icache.tags.sampled_refs             11113                       # Sample count of references to valid blocks.
system.cpu.icache.tags.avg_refs          72515.466931                       # Average number of references to valid blocks.
system.cpu.icache.tags.warmup_cycle            107000                       # Cycle when the warmup percentage was hit.
system.cpu.icache.tags.occ_blocks::.cpu.inst   255.995146                       # Average occupied blocks per requestor
system.cpu.icache.tags.occ_percent::.cpu.inst     0.999981                       # Average percentage of cache occupancy
system.cpu.icache.tags.occ_percent::total     0.999981                       # Average percentage of cache occupancy
system.cpu.icache.tags.occ_task_id_blocks::1024          256                       # Occupied blocks per task id
system.cpu.icache.tags.age_task_id_blocks_1024::0           39                       # Occupied blocks per task id
system.cpu.icache.tags.age_task_id_blocks_1024::1          103                       # Occupied blocks per task id
system.cpu.icache.tags.age_task_id_blocks_1024::2          112                       # Occupied blocks per task id
system.cpu.icache.tags.age_task_id_blocks_1024::4            2                       # Occupied blocks per task id
system.cpu.icache.tags.occ_task_id_percent::1024            1                       # Percentage of cache occupancy per task id
system.cpu.icache.tags.tag_accesses        1611739881                       # Number of tag accesses
system.cpu.icache.tags.data_accesses       1611739881                       # Number of data accesses
system.cpu.icache.tags.power_state.pwrStateResidencyTicks::UNDEFINED 2615826595000                       # Cumulative time (in ticks) in various power states
system.cpu.interrupts.clk_domain.clock          16000                       # Clock period in ticks
system.cpu.itb.rdAccesses                           0                       # TLB accesses on read requests
system.cpu.itb.wrAccesses                   805864384                       # TLB accesses on write requests
system.cpu.itb.rdMisses                             0                       # TLB misses on read requests
system.cpu.itb.wrMisses                           111                       # TLB misses on write requests
system.cpu.itb.walker.power_state.pwrStateResidencyTicks::UNDEFINED 2615826595000                       # Cumulative time (in ticks) in various power states
system.cpu.power_state.pwrStateResidencyTicks::ON 2615826595000                       # Cumulative time (in ticks) in various power states
system.cpu.thread_0.numInsts                        0                       # Number of Instructions committed
system.cpu.thread_0.numOps                          0                       # Number of Ops committed
system.cpu.thread_0.numMemRefs                      0                       # Number of Memory References
system.l2bus.trans_dist::ReadResp             3884756                       # Transaction distribution
system.l2bus.trans_dist::WritebackDirty       9100303                       # Transaction distribution
system.l2bus.trans_dist::CleanEvict           1763186                       # Transaction distribution
system.l2bus.trans_dist::ReadExReq            4096491                       # Transaction distribution
system.l2bus.trans_dist::ReadExResp           4096491                       # Transaction distribution
system.l2bus.trans_dist::ReadSharedReq        3884756                       # Transaction distribution
system.l2bus.pkt_count_system.cpu.icache.mem_side_port::system.l2cache.cpu_side_port        33083                       # Packet count per connected requestor and responder (bytes)
system.l2bus.pkt_count_system.cpu.dcache.mem_side_port::system.l2cache.cpu_side_port     23909378                       # Packet count per connected requestor and responder (bytes)
system.l2bus.pkt_count::total                23942461                       # Packet count per connected requestor and responder (bytes)
system.l2bus.pkt_size_system.cpu.icache.mem_side_port::system.l2cache.cpu_side_port       711232                       # Cumulative packet size per connected requestor and responder (bytes)
system.l2bus.pkt_size_system.cpu.dcache.mem_side_port::system.l2cache.cpu_side_port    930111360                       # Cumulative packet size per connected requestor and responder (bytes)
system.l2bus.pkt_size::total                930822592                       # Cumulative packet size per connected requestor and responder (bytes)
system.l2bus.snoops                           2883522                       # Total snoops (count)
system.l2bus.snoopTraffic                   162396608                       # Total snoop traffic (bytes)
system.l2bus.snoop_fanout::samples           10864769                       # Request fanout histogram
system.l2bus.snoop_fanout::mean              0.001170                       # Request fanout histogram
system.l2bus.snoop_fanout::stdev             0.034183                       # Request fanout histogram
system.l2bus.snoop_fanout::underflows               0      0.00%      0.00% # Request fanout histogram
system.l2bus.snoop_fanout::0                 10852059     99.88%     99.88% # Request fanout histogram
system.l2bus.snoop_fanout::1                    12710      0.12%    100.00% # Request fanout histogram
system.l2bus.snoop_fanout::2                        0      0.00%    100.00% # Request fanout histogram
system.l2bus.snoop_fanout::overflows                0      0.00%    100.00% # Request fanout histogram
system.l2bus.snoop_fanout::min_value                0                       # Request fanout histogram
system.l2bus.snoop_fanout::max_value                1                       # Request fanout histogram
system.l2bus.snoop_fanout::total             10864769                       # Request fanout histogram
system.l2bus.power_state.pwrStateResidencyTicks::UNDEFINED 2615826595000                       # Cumulative time (in ticks) in various power states
system.l2bus.reqLayer0.occupancy          29086926000                       # Layer occupancy (ticks)
system.l2bus.reqLayer0.utilization                1.1                       # Layer utilization (%)
system.l2bus.respLayer0.occupancy            33339000                       # Layer occupancy (ticks)
system.l2bus.respLayer0.utilization               0.0                       # Layer utilization (%)
system.l2bus.respLayer1.occupancy         23910402000                       # Layer occupancy (ticks)
system.l2bus.respLayer1.utilization               0.9                       # Layer utilization (%)
system.l2cache.demand_hits::.cpu.inst            6024                       # number of demand (read+write) hits
system.l2cache.demand_hits::.cpu.data         5085994                       # number of demand (read+write) hits
system.l2cache.demand_hits::total             5092018                       # number of demand (read+write) hits
system.l2cache.overall_hits::.cpu.inst           6024                       # number of overall hits
system.l2cache.overall_hits::.cpu.data        5085994                       # number of overall hits
system.l2cache.overall_hits::total            5092018                       # number of overall hits
system.l2cache.demand_misses::.cpu.inst          5089                       # number of demand (read+write) misses
system.l2cache.demand_misses::.cpu.data       2884140                       # number of demand (read+write) misses
system.l2cache.demand_misses::total           2889229                       # number of demand (read+write) misses
system.l2cache.overall_misses::.cpu.inst         5089                       # number of overall misses
system.l2cache.overall_misses::.cpu.data      2884140                       # number of overall misses
system.l2cache.overall_misses::total          2889229                       # number of overall misses
system.l2cache.demand_miss_latency::.cpu.inst    521024000                       # number of demand (read+write) miss cycles
system.l2cache.demand_miss_latency::.cpu.data 288298545000                       # number of demand (read+write) miss cycles
system.l2cache.demand_miss_latency::total 288819569000                       # number of demand (read+write) miss cycles
system.l2cache.overall_miss_latency::.cpu.inst    521024000                       # number of overall miss cycles
system.l2cache.overall_miss_latency::.cpu.data 288298545000                       # number of overall miss cycles
system.l2cache.overall_miss_latency::total 288819569000                       # number of overall miss cycles
system.l2cache.demand_accesses::.cpu.inst        11113                       # number of demand (read+write) accesses
system.l2cache.demand_accesses::.cpu.data      7970134                       # number of demand (read+write) accesses
system.l2cache.demand_accesses::total         7981247                       # number of demand (read+write) accesses
system.l2cache.overall_accesses::.cpu.inst        11113                       # number of overall (read+write) accesses
system.l2cache.overall_accesses::.cpu.data      7970134                       # number of overall (read+write) accesses
system.l2cache.overall_accesses::total        7981247                       # number of overall (read+write) accesses
system.l2cache.demand_miss_rate::.cpu.inst     0.457932                       # miss rate for demand accesses
system.l2cache.demand_miss_rate::.cpu.data     0.361868                       # miss rate for demand accesses
system.l2cache.demand_miss_rate::total       0.362002                       # miss rate for demand accesses
system.l2cache.overall_miss_rate::.cpu.inst     0.457932                       # miss rate for overall accesses
system.l2cache.overall_miss_rate::.cpu.data     0.361868                       # miss rate for overall accesses
system.l2cache.overall_miss_rate::total      0.362002                       # miss rate for overall accesses
system.l2cache.demand_avg_miss_latency::.cpu.inst 102382.393398                       # average overall miss latency
system.l2cache.demand_avg_miss_latency::.cpu.data 99959.969003                       # average overall miss latency
system.l2cache.demand_avg_miss_latency::total 99964.235787                       # average overall miss latency
system.l2cache.overall_avg_miss_latency::.cpu.inst 102382.393398                       # average overall miss latency
system.l2cache.overall_avg_miss_latency::.cpu.data 99959.969003                       # average overall miss latency
system.l2cache.overall_avg_miss_latency::total 99964.235787                       # average overall miss latency
system.l2cache.blocked_cycles::no_mshrs             0                       # number of cycles access was blocked
system.l2cache.blocked_cycles::no_targets            0                       # number of cycles access was blocked
system.l2cache.blocked::no_mshrs                    0                       # number of cycles access was blocked
system.l2cache.blocked::no_targets                  0                       # number of cycles access was blocked
system.l2cache.avg_blocked_cycles::no_mshrs          nan                       # average number of cycles each access was blocked
system.l2cache.avg_blocked_cycles::no_targets          nan                       # average number of cycles each access was blocked
system.l2cache.writebacks::.writebacks        2537447                       # number of writebacks
system.l2cache.writebacks::total              2537447                       # number of writebacks
system.l2cache.demand_mshr_misses::.cpu.inst         5089                       # number of demand (read+write) MSHR misses
system.l2cache.demand_mshr_misses::.cpu.data      2884140                       # number of demand (read+write) MSHR misses
system.l2cache.demand_mshr_misses::total      2889229                       # number of demand (read+write) MSHR misses
system.l2cache.overall_mshr_misses::.cpu.inst         5089                       # number of overall MSHR misses
system.l2cache.overall_mshr_misses::.cpu.data      2884140                       # number of overall MSHR misses
system.l2cache.overall_mshr_misses::total      2889229                       # number of overall MSHR misses
system.l2cache.demand_mshr_miss_latency::.cpu.inst    419244000                       # number of demand (read+write) MSHR miss cycles
system.l2cache.demand_mshr_miss_latency::.cpu.data 230615745000                       # number of demand (read+write) MSHR miss cycles
system.l2cache.demand_mshr_miss_latency::total 231034989000                       # number of demand (read+write) MSHR miss cycles
system.l2cache.overall_mshr_miss_latency::.cpu.inst    419244000                       # number of overall MSHR miss cycles
system.l2cache.overall_mshr_miss_latency::.cpu.data 230615745000                       # number of overall MSHR miss cycles
system.l2cache.overall_mshr_miss_latency::total 231034989000                       # number of overall MSHR miss cycles
system.l2cache.demand_mshr_miss_rate::.cpu.inst     0.457932                       # mshr miss rate for demand accesses
system.l2cache.demand_mshr_miss_rate::.cpu.data     0.361868                       # mshr miss rate for demand accesses
system.l2cache.demand_mshr_miss_rate::total     0.362002                       # mshr miss rate for demand accesses
system.l2cache.overall_mshr_miss_rate::.cpu.inst     0.457932                       # mshr miss rate for overall accesses
system.l2cache.overall_mshr_miss_rate::.cpu.data     0.361868                       # mshr miss rate for overall accesses
system.l2cache.overall_mshr_miss_rate::total     0.362002                       # mshr miss rate for overall accesses
system.l2cache.demand_avg_mshr_miss_latency::.cpu.inst 82382.393398                       # average overall mshr miss latency
system.l2cache.demand_avg_mshr_miss_latency::.cpu.data 79959.969003                       # average overall mshr miss latency
system.l2cache.demand_avg_mshr_miss_latency::total 79964.235787                       # average overall mshr miss latency
system.l2cache.overall_avg_mshr_miss_latency::.cpu.inst 82382.393398                       # average overall mshr miss latency
system.l2cache.overall_avg_mshr_miss_latency::.cpu.data 79959.969003                       # average overall mshr miss latency
system.l2cache.overall_avg_mshr_miss_latency::total 79964.235787                       # average overall mshr miss latency
system.l2cache.replacements                   2883522                       # number of replacements
system.l2cache.WritebackDirty_hits::.writebacks      6562856                       # number of WritebackDirty hits
system.l2cache.WritebackDirty_hits::total      6562856                       # number of WritebackDirty hits
system.l2cache.WritebackDirty_accesses::.writebacks      6562856                       # number of WritebackDirty accesses(hits+misses)
system.l2cache.WritebackDirty_accesses::total      6562856                       # number of WritebackDirty accesses(hits+misses)
system.l2cache.CleanEvict_mshr_misses::.writebacks         2026                       # number of CleanEvict MSHR misses
system.l2cache.CleanEvict_mshr_misses::total         2026                       # number of CleanEvict MSHR misses
system.l2cache.CleanEvict_mshr_miss_rate::.writebacks          inf                       # mshr miss rate for CleanEvict accesses
system.l2cache.CleanEvict_mshr_miss_rate::total          inf                       # mshr miss rate for CleanEvict accesses
system.l2cache.ReadExReq_hits::.cpu.data      3387951                       # number of ReadExReq hits
system.l2cache.ReadExReq_hits::total          3387951                       # number of ReadExReq hits
system.l2cache.ReadExReq_misses::.cpu.data       708540                       # number of ReadExReq misses
system.l2cache.ReadExReq_misses::total         708540                       # number of ReadExReq misses
system.l2cache.ReadExReq_miss_latency::.cpu.data  70762098000                       # number of ReadExReq miss cycles
system.l2cache.ReadExReq_miss_latency::total  70762098000                       # number of ReadExReq miss cycles
system.l2cache.ReadExReq_accesses::.cpu.data      4096491                       # number of ReadExReq accesses(hits+misses)
system.l2cache.ReadExReq_accesses::total      4096491                       # number of ReadExReq accesses(hits+misses)
system.l2cache.ReadExReq_miss_rate::.cpu.data     0.172963                       # miss rate for ReadExReq accesses
system.l2cache.ReadExReq_miss_rate::total     0.172963                       # miss rate for ReadExReq accesses
system.l2cache.ReadExReq_avg_miss_latency::.cpu.data 99870.293844                       # average ReadExReq miss latency
system.l2cache.ReadExReq_avg_miss_latency::total 99870.293844                       # average ReadExReq miss latency
system.l2cache.ReadExReq_mshr_misses::.cpu.data       708540                       # number of ReadExReq MSHR misses
system.l2cache.ReadExReq_mshr_misses::total       708540                       # number of ReadExReq MSHR misses
system.l2cache.ReadExReq_mshr_miss_latency::.cpu.data  56591298000                       # number of ReadExReq MSHR miss cycles
system.l2cache.ReadExReq_mshr_miss_latency::total  56591298000                       # number of ReadExReq MSHR miss cycles
system.l2cache.ReadExReq_mshr_miss_rate::.cpu.data     0.172963                       # mshr miss rate for ReadExReq accesses
system.l2cache.ReadExReq_mshr_miss_rate::total     0.172963                       # mshr miss rate for ReadExReq accesses
system.l2cache.ReadExReq_avg_mshr_miss_latency::.cpu.data 79870.293844                       # average ReadExReq mshr miss latency
system.l2cache.ReadExReq_avg_mshr_miss_latency::total 79870.293844                       # average ReadExReq mshr miss latency
system.l2cache.ReadSharedReq_hits::.cpu.inst         6024                       # number of ReadSharedReq hits
system.l2cache.ReadSharedReq_hits::.cpu.data      1698043                       # number of ReadSharedReq hits
system.l2cache.ReadSharedReq_hits::total      1704067                       # number of ReadSharedReq hits
system.l2cache.ReadSharedReq_misses::.cpu.inst         5089                       # number of ReadSharedReq misses
system.l2cache.ReadSharedReq_misses::.cpu.data      2175600                       # number of ReadSharedReq misses
system.l2cache.ReadSharedReq_misses::total      2180689                       # number of ReadSharedReq misses
system.l2cache.ReadSharedReq_miss_latency::.cpu.inst    521024000                       # number of ReadSharedReq miss cycles
system.l2cache.ReadSharedReq_miss_latency::.cpu.data 217536447000                       # number of ReadSharedReq miss cycles
system.l2cache.ReadSharedReq_miss_latency::total 218057471000                       # number of ReadSharedReq miss cycles
system.l2cache.ReadSharedReq_accesses::.cpu.inst        11113                       # number of ReadSharedReq accesses(hits+misses)
system.l2cache.ReadSharedReq_accesses::.cpu.data      3873643                       # number of ReadSharedReq accesses(hits+misses)
system.l2cache.ReadSharedReq_accesses::total      3884756                       # number of ReadSharedReq accesses(hits+misses)
system.l2cache.ReadSharedReq_miss_rate::.cpu.inst     0.457932                       # miss rate for ReadSharedReq accesses
system.l2cache.ReadSharedReq_miss_rate::.cpu.data     0.561642                       # miss rate for ReadSharedReq accesses
system.l2cache.ReadSharedReq_miss_rate::total     0.561345                       # miss rate for ReadSharedReq accesses
system.l2cache.ReadSharedReq_avg_miss_latency::.cpu.inst 102382.393398                       # average ReadSharedReq miss latency
system.l2cache.ReadSharedReq_avg_miss_latency::.cpu.data 99989.174021                       # average ReadSharedReq miss latency
system.l2cache.ReadSharedReq_avg_miss_latency::total 99994.758996                       # average ReadSharedReq miss latency
system.l2cache.ReadSharedReq_mshr_misses::.cpu.inst         5089                       # number of ReadSharedReq MSHR misses
system.l2cache.ReadSharedReq_mshr_misses::.cpu.data      2175600                       # number of ReadSharedReq MSHR misses
system.l2cache.ReadSharedReq_mshr_misses::total      2180689                       # number of ReadSharedReq MSHR misses
system.l2cache.ReadSharedReq_mshr_miss_latency::.cpu.inst    419244000                       # number of ReadSharedReq MSHR miss cycles
system.l2cache.ReadSharedReq_mshr_miss_latency::.cpu.data 174024447000                       # number of ReadSharedReq MSHR miss cycles
system.l2cache.ReadSharedReq_mshr_miss_latency::total 174443691000                       # number of ReadSharedReq MSHR miss cycles
system.l2cache.ReadSharedReq_mshr_miss_rate::.cpu.inst     0.457932                       # mshr miss rate for ReadSharedReq accesses
system.l2cache.ReadSharedReq_mshr_miss_rate::.cpu.data     0.561642                       # mshr miss rate for ReadSharedReq accesses
system.l2cache.ReadSharedReq_mshr_miss_rate::total     0.561345                       # mshr miss rate for ReadSharedReq accesses
system.l2cache.ReadSharedReq_avg_mshr_miss_latency::.cpu.inst 82382.393398                       # average ReadSharedReq mshr miss latency
system.l2cache.ReadSharedReq_avg_mshr_miss_latency::.cpu.data 79989.174021                       # average ReadSharedReq mshr miss latency
system.l2cache.ReadSharedReq_avg_mshr_miss_latency::total 79994.758996                       # average ReadSharedReq mshr miss latency
system.l2cache.power_state.pwrStateResidencyTicks::UNDEFINED 2615826595000                       # Cumulative time (in ticks) in various power states
system.l2cache.tags.tagsinuse            16365.946009                       # Cycle average of tags in use
system.l2cache.tags.total_refs               15959188                       # Total number of references to valid blocks.
system.l2cache.tags.sampled_refs              2899906                       # Sample count of references to valid blocks.
system.l2cache.tags.avg_refs                 5.503347                       # Average number of references to valid blocks.
system.l2cache.tags.warmup_cycle                86000                       # Cycle when the warmup percentage was hit.
system.l2cache.tags.occ_blocks::.writebacks   209.856226                       # Average occupied blocks per requestor
system.l2cache.tags.occ_blocks::.cpu.inst     9.697018                       # Average occupied blocks per requestor
system.l2cache.tags.occ_blocks::.cpu.data 16146.392764                       # Average occupied blocks per requestor
system.l2cache.tags.occ_percent::.writebacks     0.012809                       # Average percentage of cache occupancy
system.l2cache.tags.occ_percent::.cpu.inst     0.000592                       # Average percentage of cache occupancy
system.l2cache.tags.occ_percent::.cpu.data     0.985498                       # Average percentage of cache occupancy
system.l2cache.tags.occ_percent::total       0.998898                       # Average percentage of cache occupancy
system.l2cache.tags.occ_task_id_blocks::1024        16384                       # Occupied blocks per task id
system.l2cache.tags.age_task_id_blocks_1024::0           60                       # Occupied blocks per task id
system.l2cache.tags.age_task_id_blocks_1024::1          126                       # Occupied blocks per task id
system.l2cache.tags.age_task_id_blocks_1024::2         1831                       # Occupied blocks per task id
system.l2cache.tags.age_task_id_blocks_1024::3         6209                       # Occupied blocks per task id
system.l2cache.tags.age_task_id_blocks_1024::4         8158                       # Occupied blocks per task id
system.l2cache.tags.occ_task_id_percent::1024            1                       # Percentage of cache occupancy per task id
system.l2cache.tags.tag_accesses            130589618                       # Number of tag accesses
system.l2cache.tags.data_accesses           130589618                       # Number of data accesses
system.l2cache.tags.power_state.pwrStateResidencyTicks::UNDEFINED 2615826595000                       # Cumulative time (in ticks) in various power states
system.mem_ctrl.avgPriority_.writebacks::samples   2537447.00                       # Average QoS priority value for accepted requests
system.mem_ctrl.avgPriority_.cpu.inst::samples      5089.00                       # Average QoS priority value for accepted requests
system.mem_ctrl.avgPriority_.cpu.data::samples   2884140.00                       # Average QoS priority value for accepted requests
system.mem_ctrl.priorityMinLatency       0.000000018750                       # per QoS priority minimum request to response latency (s)
system.mem_ctrl.priorityMaxLatency       0.002939926500                       # per QoS priority maximum request to response latency (s)
system.mem_ctrl.numReadWriteTurnArounds        145941                       # Number of turnarounds from READ to WRITE
system.mem_ctrl.numWriteReadTurnArounds        145941                       # Number of turnarounds from WRITE to READ
system.mem_ctrl.numStayReadState              8912807                       # Number of times bus staying in READ state
system.mem_ctrl.numStayWriteState             2397308                       # Number of times bus staying in WRITE state
system.mem_ctrl.readReqs                      2889229                       # Number of read requests accepted
system.mem_ctrl.writeReqs                     2537447                       # Number of write requests accepted
system.mem_ctrl.readBursts                    2889229                       # Number of controller read bursts, including those serviced by the write queue
system.mem_ctrl.writeBursts                   2537447                       # Number of controller write bursts, including those merged in the write queue
system.mem_ctrl.servicedByWrQ                       0                       # Number of controller read bursts serviced by the write queue
system.mem_ctrl.mergedWrBursts                      0                       # Number of controller write bursts merged with an existing one
system.mem_ctrl.neitherReadNorWriteReqs             0                       # Number of requests that are neither read nor write
system.mem_ctrl.avgRdQLen                        1.00                       # Average read queue length when enqueuing
system.mem_ctrl.avgWrQLen                       25.21                       # Average write queue length when enqueuing
system.mem_ctrl.numRdRetry                          0                       # Number of times read queue was full causing retry
system.mem_ctrl.numWrRetry                          0                       # Number of times write queue was full causing retry
system.mem_ctrl.readPktSize::0                      0                       # Read request sizes (log2)
system.mem_ctrl.readPktSize::1                      0                       # Read request sizes (log2)
system.mem_ctrl.readPktSize::2                      0                       # Read request sizes (log2)
system.mem_ctrl.readPktSize::3                      0                       # Read request sizes (log2)
system.mem_ctrl.readPktSize::4                      0                       # Read request sizes (log2)
system.mem_ctrl.readPktSize::5                      0                       # Read request sizes (log2)
system.mem_ctrl.readPktSize::6                2889229                       # Read request sizes (log2)
system.mem_ctrl.writePktSize::0                     0                       # Write request sizes (log2)
system.mem_ctrl.writePktSize::1                     0                       # Write request sizes (log2)
system.mem_ctrl.writePktSize::2                     0                       # Write request sizes (log2)
system.mem_ctrl.writePktSize::3                     0                       # Write request sizes (log2)
system.mem_ctrl.writePktSize::4                     0                       # Write request sizes (log2)
system.mem_ctrl.writePktSize::5                     0                       # Write request sizes (log2)
system.mem_ctrl.writePktSize::6               2537447                       # Write request sizes (log2)
system.mem_ctrl.rdQLenPdf::0                  2889226                       # What read queue length does an incoming req see
system.mem_ctrl.rdQLenPdf::1                        3                       # What read queue length does an incoming req see
system.mem_ctrl.rdQLenPdf::2                        0                       # What read queue length does an incoming req see
system.mem_ctrl.rdQLenPdf::3                        0                       # What read queue length does an incoming req see
system.mem_ctrl.rdQLenPdf::4                        0                       # What read queue length does an incoming req see
system.mem_ctrl.rdQLenPdf::5                        0                       # What read queue length does an incoming req see
system.mem_ctrl.rdQLenPdf::6                        0                       # What read queue length does an incoming req see
system.mem_ctrl.rdQLenPdf::7                        0                       # What read queue length does an incoming req see
system.mem_ctrl.rdQLenPdf::8                        0                       # What read queue length does an incoming req see
system.mem_ctrl.rdQLenPdf::9                        0                       # What read queue length does an incoming req see
system.mem_ctrl.rdQLenPdf::10                       0                       # What read queue length does an incoming req see
system.mem_ctrl.rdQLenPdf::11                       0                       # What read queue length does an incoming req see
system.mem_ctrl.rdQLenPdf::12                       0                       # What read queue length does an incoming req see
system.mem_ctrl.rdQLenPdf::13                       0                       # What read queue length does an incoming req see
system.mem_ctrl.rdQLenPdf::14                       0                       # What read queue length does an incoming req see
system.mem_ctrl.rdQLenPdf::15                       0                       # What read queue length does an incoming req see
system.mem_ctrl.rdQLenPdf::16                       0                       # What read queue length does an incoming req see
system.mem_ctrl.rdQLenPdf::17                       0                       # What read queue length does an incoming req see
system.mem_ctrl.rdQLenPdf::18                       0                       # What read queue length does an incoming req see
system.mem_ctrl.rdQLenPdf::19                       0                       # What read queue length does an incoming req see
system.mem_ctrl.rdQLenPdf::20                       0                       # What read queue length does an incoming req see
system.mem_ctrl.rdQLenPdf::21                       0                       # What read queue length does an incoming req see
system.mem_ctrl.rdQLenPdf::22                       0                       # What read queue length does an incoming req see
system.mem_ctrl.rdQLenPdf::23                       0                       # What read queue length does an incoming req see
system.mem_ctrl.rdQLenPdf::24                       0                       # What read queue length does an incoming req see
system.mem_ctrl.rdQLenPdf::25                       0                       # What read queue length does an incoming req see
system.mem_ctrl.rdQLenPdf::26                       0                       # What read queue length does an incoming req see
system.mem_ctrl.rdQLenPdf::27                       0                       # What read queue length does an incoming req see
system.mem_ctrl.rdQLenPdf::28                       0                       # What read queue length does an incoming req see
system.mem_ctrl.rdQLenPdf::29                       0                       # What read queue length does an incoming req see
system.mem_ctrl.rdQLenPdf::30                       0                       # What read queue length does an incoming req see
system.mem_ctrl.rdQLenPdf::31                       0                       # What read queue length does an incoming req see
system.mem_ctrl.wrQLenPdf::0                        1                       # What write queue length does an incoming req see
system.mem_ctrl.wrQLenPdf::1                        1                       # What write queue length does an incoming req see
system.mem_ctrl.wrQLenPdf::2                        1                       # What write queue length does an incoming req see
system.mem_ctrl.wrQLenPdf::3                        1                       # What write queue length does an incoming req see
system.mem_ctrl.wrQLenPdf::4                        1                       # What write queue length does an incoming req see
system.mem_ctrl.wrQLenPdf::5                        1                       # What write queue length does an incoming req see
system.mem_ctrl.wrQLenPdf::6                        1                       # What write queue length does an incoming req see
system.mem_ctrl.wrQLenPdf::7                        1                       # What write queue length does an incoming req see
system.mem_ctrl.wrQLenPdf::8                        1                       # What write queue length does an incoming req see
system.mem_ctrl.wrQLenPdf::9                        1                       # What write queue length does an incoming req see
system.mem_ctrl.wrQLenPdf::10                       1                       # What write queue length does an incoming req see
system.mem_ctrl.wrQLenPdf::11                       1                       # What write queue length does an incoming req see
system.mem_ctrl.wrQLenPdf::12                       1                       # What write queue length does an incoming req see
system.mem_ctrl.wrQLenPdf::13                       1                       # What write queue length does an incoming req see
system.mem_ctrl.wrQLenPdf::14                       1                       # What write queue length does an incoming req see
system.mem_ctrl.wrQLenPdf::15                  100282                       # What write queue length does an incoming req see
system.mem_ctrl.wrQLenPdf::16                  101442                       # What write queue length does an incoming req see
system.mem_ctrl.wrQLenPdf::17                  145780                       # What write queue length does an incoming req see
system.mem_ctrl.wrQLenPdf::18                  145965                       # What write queue length does an incoming req see
system.mem_ctrl.wrQLenPdf::19                  146008                       # What write queue length does an incoming req see
system.mem_ctrl.wrQLenPdf::20                  146001                       # What write queue length does an incoming req see
system.mem_ctrl.wrQLenPdf::21                  146092                       # What write queue length does an incoming req see
system.mem_ctrl.wrQLenPdf::22                  145977                       # What write queue length does an incoming req see
system.mem_ctrl.wrQLenPdf::23                  146274                       # What write queue length does an incoming req see
system.mem_ctrl.wrQLenPdf::24                  146064                       # What write queue length does an incoming req see
system.mem_ctrl.wrQLenPdf::25                  145943                       # What write queue length does an incoming req see
system.mem_ctrl.wrQLenPdf::26                  145944                       # What write queue length does an incoming req see
system.mem_ctrl.wrQLenPdf::27                  145943                       # What write queue length does an incoming req see
system.mem_ctrl.wrQLenPdf::28                  145943                       # What write queue length does an incoming req see
system.mem_ctrl.wrQLenPdf::29                  145943                       # What write queue length does an incoming req see
system.mem_ctrl.wrQLenPdf::30                  145941                       # What write queue length does an incoming req see
system.mem_ctrl.wrQLenPdf::31                  145942                       # What write queue length does an incoming req see
system.mem_ctrl.wrQLenPdf::32                  145941                       # What write queue length does an incoming req see
system.mem_ctrl.wrQLenPdf::33                       5                       # What write queue length does an incoming req see
system.mem_ctrl.wrQLenPdf::34                       2                       # What write queue length does an incoming req see
system.mem_ctrl.wrQLenPdf::35                       0                       # What write queue length does an incoming req see
system.mem_ctrl.wrQLenPdf::36                       0                       # What write queue length does an incoming req see
system.mem_ctrl.wrQLenPdf::37                       0                       # What write queue length does an incoming req see
system.mem_ctrl.wrQLenPdf::38                       0                       # What write queue length does an incoming req see
system.mem_ctrl.wrQLenPdf::39                       0                       # What write queue length does an incoming req see
system.mem_ctrl.wrQLenPdf::40                       0                       # What write queue length does an incoming req see
system.mem_ctrl.wrQLenPdf::41                       0                       # What write queue length does an incoming req see
system.mem_ctrl.wrQLenPdf::42                       0                       # What write queue length does an incoming req see
system.mem_ctrl.wrQLenPdf::43                       0                       # What write queue length does an incoming req see
system.mem_ctrl.wrQLenPdf::44                       0                       # What write queue length does an incoming req see
system.mem_ctrl.wrQLenPdf::45                       0                       # What write queue length does an incoming req see
system.mem_ctrl.wrQLenPdf::46                       0                       # What write queue length does an incoming req see
system.mem_ctrl.wrQLenPdf::47                       0                       # What write queue length does an incoming req see
system.mem_ctrl.wrQLenPdf::48                       0                       # What write queue length does an incoming req see
system.mem_ctrl.wrQLenPdf::49                       0                       # What write queue length does an incoming req see
system.mem_ctrl.wrQLenPdf::50                       0                       # What write queue length does an incoming req see
system.mem_ctrl.wrQLenPdf::51                       0                       # What write queue length does an incoming req see
system.mem_ctrl.wrQLenPdf::52                       0                       # What write queue length does an incoming req see
system.mem_ctrl.wrQLenPdf::53                       0                       # What write queue length does an incoming req see
system.mem_ctrl.wrQLenPdf::54                       0                       # What write queue length does an incoming req see
system.mem_ctrl.wrQLenPdf::55                       0                       # What write queue length does an incoming req see
system.mem_ctrl.wrQLenPdf::56                       0                       # What write queue length does an incoming req see
system.mem_ctrl.wrQLenPdf::57                       0                       # What write queue length does an incoming req see
system.mem_ctrl.wrQLenPdf::58                       0                       # What write queue length does an incoming req see
system.mem_ctrl.wrQLenPdf::59                       0                       # What write queue length does an incoming req see
system.mem_ctrl.wrQLenPdf::60                       0                       # What write queue length does an incoming req see
system.mem_ctrl.wrQLenPdf::61                       0                       # What write queue length does an incoming req see
system.mem_ctrl.wrQLenPdf::62                       0                       # What write queue length does an incoming req see
system.mem_ctrl.wrQLenPdf::63                       0                       # What write queue length does an incoming req see
system.mem_ctrl.rdPerTurnAround::samples       145941                       # Reads before turning the bus around for writes
system.mem_ctrl.rdPerTurnAround::mean       19.797158                       # Reads before turning the bus around for writes
system.mem_ctrl.rdPerTurnAround::gmean      18.971310                       # Reads before turning the bus around for writes
system.mem_ctrl.rdPerTurnAround::stdev      41.171592                       # Reads before turning the bus around for writes
system.mem_ctrl.rdPerTurnAround::0-511         145930     99.99%     99.99% # Reads before turning the bus around for writes
system.mem_ctrl.rdPerTurnAround::512-1023            9      0.01%    100.00% # Reads before turning the bus around for writes
system.mem_ctrl.rdPerTurnAround::1024-1535            1      0.00%    100.00% # Reads before turning the bus around for writes
system.mem_ctrl.rdPerTurnAround::14848-15359            1      0.00%    100.00% # Reads before turning the bus around for writes
system.mem_ctrl.rdPerTurnAround::total         145941                       # Reads before turning the bus around for writes
system.mem_ctrl.wrPerTurnAround::samples       145941                       # Writes before turning the bus around for reads
system.mem_ctrl.wrPerTurnAround::mean       17.386601                       # Writes before turning the bus around for reads
system.mem_ctrl.wrPerTurnAround::gmean      17.361140                       # Writes before turning the bus around for reads
system.mem_ctrl.wrPerTurnAround::stdev       0.927045                       # Writes before turning the bus around for reads
system.mem_ctrl.wrPerTurnAround::16             44637     30.59%     30.59% # Writes before turning the bus around for reads
system.mem_ctrl.wrPerTurnAround::17              1014      0.69%     31.28% # Writes before turning the bus around for reads
system.mem_ctrl.wrPerTurnAround::18             99524     68.19%     99.48% # Writes before turning the bus around for reads
system.mem_ctrl.wrPerTurnAround::19               764      0.52%    100.00% # Writes before turning the bus around for reads
system.mem_ctrl.wrPerTurnAround::20                 2      0.00%    100.00% # Writes before turning the bus around for reads
system.mem_ctrl.wrPerTurnAround::total         145941                       # Writes before turning the bus around for reads
system.mem_ctrl.bytesReadWrQ                        0                       # Total number of bytes read from write queue
system.mem_ctrl.bytesReadSys                184910656                       # Total read bytes from the system interface side
system.mem_ctrl.bytesWrittenSys             162396608                       # Total written bytes from the system interface side
system.mem_ctrl.avgRdBWSys                      70.69                       # Average system read bandwidth in MiByte/s
system.mem_ctrl.avgWrBWSys                      62.08                       # Average system write bandwidth in MiByte/s
system.mem_ctrl.totGap                   2615826563000                       # Total gap between requests
system.mem_ctrl.avgGap                      482031.09                       # Average gap between requests
system.mem_ctrl.requestorReadBytes::.cpu.inst       325696                       # Per-requestor bytes read from memory
system.mem_ctrl.requestorReadBytes::.cpu.data    184584960                       # Per-requestor bytes read from memory
system.mem_ctrl.requestorWriteBytes::.writebacks    162394752                       # Per-requestor bytes write to memory
system.mem_ctrl.requestorReadRate::.cpu.inst 124509.782346639069                       # Per-requestor bytes read from memory rate (Bytes/sec)
system.mem_ctrl.requestorReadRate::.cpu.data 70564677.472437724471                       # Per-requestor bytes read from memory rate (Bytes/sec)
system.mem_ctrl.requestorWriteRate::.writebacks 62081619.748957403004                       # Per-requestor bytes write to memory rate (Bytes/sec)
system.mem_ctrl.requestorReadAccesses::.cpu.inst         5089                       # Per-requestor read serviced memory accesses
system.mem_ctrl.requestorReadAccesses::.cpu.data      2884140                       # Per-requestor read serviced memory accesses
system.mem_ctrl.requestorWriteAccesses::.writebacks      2537447                       # Per-requestor write serviced memory accesses
system.mem_ctrl.requestorReadTotalLat::.cpu.inst    157963750                       # Per-requestor read total memory access latency
system.mem_ctrl.requestorReadTotalLat::.cpu.data  82658728500                       # Per-requestor read total memory access latency
system.mem_ctrl.requestorWriteTotalLat::.writebacks 63667075374750                       # Per-requestor write total memory access latency
system.mem_ctrl.requestorReadAvgLat::.cpu.inst     31040.23                       # Per-requestor read average memory access latency
system.mem_ctrl.requestorReadAvgLat::.cpu.data     28659.75                       # Per-requestor read average memory access latency
system.mem_ctrl.requestorWriteAvgLat::.writebacks  25090997.12                       # Per-requestor write average memory access latency
system.mem_ctrl.dram.bytes_read::.cpu.inst       325696                       # Number of bytes read from this memory
system.mem_ctrl.dram.bytes_read::.cpu.data    184584960                       # Number of bytes read from this memory
system.mem_ctrl.dram.bytes_read::total      184910656                       # Number of bytes read from this memory
system.mem_ctrl.dram.bytes_inst_read::.cpu.inst       325696                       # Number of instructions bytes read from this memory
system.mem_ctrl.dram.bytes_inst_read::total       325696                       # Number of instructions bytes read from this memory
system.mem_ctrl.dram.bytes_written::.writebacks    162396608                       # Number of bytes written to this memory
system.mem_ctrl.dram.bytes_written::total    162396608                       # Number of bytes written to this memory
system.mem_ctrl.dram.num_reads::.cpu.inst         5089                       # Number of read requests responded to by this memory
system.mem_ctrl.dram.num_reads::.cpu.data      2884140                       # Number of read requests responded to by this memory
system.mem_ctrl.dram.num_reads::total         2889229                       # Number of read requests responded to by this memory
system.mem_ctrl.dram.num_writes::.writebacks      2537447                       # Number of write requests responded to by this memory
system.mem_ctrl.dram.num_writes::total        2537447                       # Number of write requests responded to by this memory
system.mem_ctrl.dram.bw_read::.cpu.inst        124510                       # Total read bandwidth from this memory (bytes/s)
system.mem_ctrl.dram.bw_read::.cpu.data      70564677                       # Total read bandwidth from this memory (bytes/s)
system.mem_ctrl.dram.bw_read::total          70689187                       # Total read bandwidth from this memory (bytes/s)
system.mem_ctrl.dram.bw_inst_read::.cpu.inst       124510                       # Instruction read bandwidth from this memory (bytes/s)
system.mem_ctrl.dram.bw_inst_read::total       124510                       # Instruction read bandwidth from this memory (bytes/s)
system.mem_ctrl.dram.bw_write::.writebacks     62082329                       # Write bandwidth from this memory (bytes/s)
system.mem_ctrl.dram.bw_write::total         62082329                       # Write bandwidth from this memory (bytes/s)
system.mem_ctrl.dram.bw_total::.writebacks     62082329                       # Total bandwidth to/from this memory (bytes/s)
system.mem_ctrl.dram.bw_total::.cpu.inst       124510                       # Total bandwidth to/from this memory (bytes/s)
system.mem_ctrl.dram.bw_total::.cpu.data     70564677                       # Total bandwidth to/from this memory (bytes/s)
system.mem_ctrl.dram.bw_total::total        132771517                       # Total bandwidth to/from this memory (bytes/s)
system.mem_ctrl.dram.readBursts               2889229                       # Number of DRAM read bursts
system.mem_ctrl.dram.writeBursts              2537418                       # Number of DRAM write bursts
system.mem_ctrl.dram.perBankRdBursts::0        183594                       # Per bank write bursts
system.mem_ctrl.dram.perBankRdBursts::1        183491                       # Per bank write bursts
system.mem_ctrl.dram.perBankRdBursts::2        183236                       # Per bank write bursts
system.mem_ctrl.dram.perBankRdBursts::3        181782                       # Per bank write bursts
system.mem_ctrl.dram.perBankRdBursts::4        178639                       # Per bank write bursts
system.mem_ctrl.dram.perBankRdBursts::5        175752                       # Per bank write bursts
system.mem_ctrl.dram.perBankRdBursts::6        180229                       # Per bank write bursts
system.mem_ctrl.dram.perBankRdBursts::7        182063                       # Per bank write bursts
system.mem_ctrl.dram.perBankRdBursts::8        181513                       # Per bank write bursts
system.mem_ctrl.dram.perBankRdBursts::9        180704                       # Per bank write bursts
system.mem_ctrl.dram.perBankRdBursts::10       180954                       # Per bank write bursts
system.mem_ctrl.dram.perBankRdBursts::11       180541                       # Per bank write bursts
system.mem_ctrl.dram.perBankRdBursts::12       176196                       # Per bank write bursts
system.mem_ctrl.dram.perBankRdBursts::13       175468                       # Per bank write bursts
system.mem_ctrl.dram.perBankRdBursts::14       181525                       # Per bank write bursts
system.mem_ctrl.dram.perBankRdBursts::15       183542                       # Per bank write bursts
system.mem_ctrl.dram.perBankWrBursts::0        160695                       # Per bank write bursts
system.mem_ctrl.dram.perBankWrBursts::1        160656                       # Per bank write bursts
system.mem_ctrl.dram.perBankWrBursts::2        160728                       # Per bank write bursts
system.mem_ctrl.dram.perBankWrBursts::3        159863                       # Per bank write bursts
system.mem_ctrl.dram.perBankWrBursts::4        157256                       # Per bank write bursts
system.mem_ctrl.dram.perBankWrBursts::5        154724                       # Per bank write bursts
system.mem_ctrl.dram.perBankWrBursts::6        158380                       # Per bank write bursts
system.mem_ctrl.dram.perBankWrBursts::7        160007                       # Per bank write bursts
system.mem_ctrl.dram.perBankWrBursts::8        159814                       # Per bank write bursts
system.mem_ctrl.dram.perBankWrBursts::9        158893                       # Per bank write bursts
system.mem_ctrl.dram.perBankWrBursts::10       158960                       # Per bank write bursts
system.mem_ctrl.dram.perBankWrBursts::11       158536                       # Per bank write bursts
system.mem_ctrl.dram.perBankWrBursts::12       155003                       # Per bank write bursts
system.mem_ctrl.dram.perBankWrBursts::13       154345                       # Per bank write bursts
system.mem_ctrl.dram.perBankWrBursts::14       158864                       # Per bank write bursts
system.mem_ctrl.dram.perBankWrBursts::15       160694                       # Per bank write bursts
system.mem_ctrl.dram.totQLat              28643648500                       # Total ticks spent queuing
system.mem_ctrl.dram.totBusLat            14446145000                       # Total ticks spent in databus transfers
system.mem_ctrl.dram.totMemAccLat         82816692250                       # Total ticks spent from burst creation until serviced by the DRAM
system.mem_ctrl.dram.avgQLat                  9913.94                       # Average queueing delay per DRAM burst
system.mem_ctrl.dram.avgBusLat                5000.00                       # Average bus latency per DRAM burst
system.mem_ctrl.dram.avgMemAccLat            28663.94                       # Average memory access latency per DRAM burst
system.mem_ctrl.dram.readRowHits              2380969                       # Number of row buffer hits during reads
system.mem_ctrl.dram.writeRowHits             2216997                       # Number of row buffer hits during writes
system.mem_ctrl.dram.readRowHitRate             82.41                       # Row buffer hit rate for reads
system.mem_ctrl.dram.writeRowHitRate            87.37                       # Row buffer hit rate for writes
system.mem_ctrl.dram.bytesPerActivate::samples       828674                       # Bytes accessed per row activation
system.mem_ctrl.dram.bytesPerActivate::mean   419.107654                       # Bytes accessed per row activation
system.mem_ctrl.dram.bytesPerActivate::gmean   295.566900                       # Bytes accessed per row activation
system.mem_ctrl.dram.bytesPerActivate::stdev   314.845986                       # Bytes accessed per row activation
system.mem_ctrl.dram.bytesPerActivate::0-127       115818     13.98%     13.98% # Bytes accessed per row activation
system.mem_ctrl.dram.bytesPerActivate::128-255       195876     23.64%     37.61% # Bytes accessed per row activation
system.mem_ctrl.dram.bytesPerActivate::256-383        91510     11.04%     48.66% # Bytes accessed per row activation
system.mem_ctrl.dram.bytesPerActivate::384-511       102562     12.38%     61.03% # Bytes accessed per row activation
system.mem_ctrl.dram.bytesPerActivate::512-639       137129     16.55%     77.58% # Bytes accessed per row activation
system.mem_ctrl.dram.bytesPerActivate::640-767        33826      4.08%     81.66% # Bytes accessed per row activation
system.mem_ctrl.dram.bytesPerActivate::768-895        26460      3.19%     84.86% # Bytes accessed per row activation
system.mem_ctrl.dram.bytesPerActivate::896-1023        23541      2.84%     87.70% # Bytes accessed per row activation
system.mem_ctrl.dram.bytesPerActivate::1024-1151       101952     12.30%    100.00% # Bytes accessed per row activation
system.mem_ctrl.dram.bytesPerActivate::total       828674                       # Bytes accessed per row activation
system.mem_ctrl.dram.bytesRead              184910656                       # Total number of bytes read from DRAM
system.mem_ctrl.dram.bytesWritten           162394752                       # Total number of bytes written to DRAM
system.mem_ctrl.dram.avgRdBW                70.689187                       # Average DRAM read bandwidth in MiBytes/s
system.mem_ctrl.dram.avgWrBW                62.081620                       # Average DRAM write bandwidth in MiBytes/s
system.mem_ctrl.dram.peakBW                  12800.00                       # Theoretical peak bandwidth in MiByte/s
system.mem_ctrl.dram.busUtil                     1.04                       # Data bus utilization in percentage
system.mem_ctrl.dram.busUtilRead                 0.55                       # Data bus utilization in percentage for reads
system.mem_ctrl.dram.busUtilWrite                0.49                       # Data bus utilization in percentage for writes
system.mem_ctrl.dram.pageHitRate                84.73                       # Row buffer hit rate, read and write combined
system.mem_ctrl.dram.power_state.pwrStateResidencyTicks::UNDEFINED 2615826595000                       # Cumulative time (in ticks) in various power states
system.mem_ctrl.dram.rank0.actEnergy       2973674340                       # Energy for activate commands per rank (pJ)
system.mem_ctrl.dram.rank0.preEnergy       1580522625                       # Energy for precharge commands per rank (pJ)
system.mem_ctrl.dram.rank0.readEnergy     10344332040                       # Energy for read commands per rank (pJ)
system.mem_ctrl.dram.rank0.writeEnergy     6641452980                       # Energy for write commands per rank (pJ)
system.mem_ctrl.dram.rank0.refreshEnergy 206490766560.000031                       # Energy for refresh commands per rank (pJ)
system.mem_ctrl.dram.rank0.actBackEnergy 283608188820                       # Energy for active background per rank (pJ)
system.mem_ctrl.dram.rank0.preBackEnergy 765649464000                       # Energy for precharge background per rank (pJ)
system.mem_ctrl.dram.rank0.actPowerDownEnergy            0                       # Energy for active power-down per rank (pJ)
system.mem_ctrl.dram.rank0.prePowerDownEnergy            0                       # Energy for precharge power-down per rank (pJ)
system.mem_ctrl.dram.rank0.selfRefreshEnergy            0                       # Energy for self refresh per rank (pJ)
system.mem_ctrl.dram.rank0.totalEnergy   1277288401365                       # Total energy per rank (pJ)
system.mem_ctrl.dram.rank0.averagePower    488.292459                       # Core power per rank (mW)
system.mem_ctrl.dram.rank0.totalIdleTime            0                       # Total Idle time Per DRAM Rank
system.mem_ctrl.dram.rank0.pwrStateTime::IDLE 1986284543250                       # Time in different power states
system.mem_ctrl.dram.rank0.pwrStateTime::REF  87348040000                       # Time in different power states
system.mem_ctrl.dram.rank0.pwrStateTime::SREF            0                       # Time in different power states
system.mem_ctrl.dram.rank0.pwrStateTime::PRE_PDN            0                       # Time in different power states
system.mem_ctrl.dram.rank0.pwrStateTime::ACT 542194011750                       # Time in different power states
system.mem_ctrl.dram.rank0.pwrStateTime::ACT_PDN            0                       # Time in different power states
system.mem_ctrl.dram.rank1.actEnergy       2943108000                       # Energy for activate commands per rank (pJ)
system.mem_ctrl.dram.rank1.preEnergy       1564295205                       # Energy for precharge commands per rank (pJ)
system.mem_ctrl.dram.rank1.readEnergy     10284763020                       # Energy for read commands per rank (pJ)
system.mem_ctrl.dram.rank1.writeEnergy     6603868980                       # Energy for write commands per rank (pJ)
system.mem_ctrl.dram.rank1.refreshEnergy 206490766560.000031                       # Energy for refresh commands per rank (pJ)
system.mem_ctrl.dram.rank1.actBackEnergy 282966255390                       # Energy for active background per rank (pJ)
system.mem_ctrl.dram.rank1.preBackEnergy 766190039520                       # Energy for precharge background per rank (pJ)
system.mem_ctrl.dram.rank1.actPowerDownEnergy            0                       # Energy for active power-down per rank (pJ)
system.mem_ctrl.dram.rank1.prePowerDownEnergy            0                       # Energy for precharge power-down per rank (pJ)
system.mem_ctrl.dram.rank1.selfRefreshEnergy            0                       # Energy for self refresh per rank (pJ)
system.mem_ctrl.dram.rank1.totalEnergy   1277043096675                       # Total energy per rank (pJ)
system.mem_ctrl.dram.rank1.averagePower    488.198682                       # Core power per rank (mW)
system.mem_ctrl.dram.rank1.totalIdleTime            0                       # Total Idle time Per DRAM Rank
system.mem_ctrl.dram.rank1.pwrStateTime::IDLE 1987732633000                       # Time in different power states
system.mem_ctrl.dram.rank1.pwrStateTime::REF  87348040000                       # Time in different power states
system.mem_ctrl.dram.rank1.pwrStateTime::SREF            0                       # Time in different power states
system.mem_ctrl.dram.rank1.pwrStateTime::PRE_PDN            0                       # Time in different power states
system.mem_ctrl.dram.rank1.pwrStateTime::ACT 540745922000                       # Time in different power states
system.mem_ctrl.dram.rank1.pwrStateTime::ACT_PDN            0                       # Time in different power states
system.mem_ctrl.power_state.pwrStateResidencyTicks::UNDEFINED 2615826595000                       # Cumulative time (in ticks) in various power states
system.membus.trans_dist::ReadResp            2180689                       # Transaction distribution
system.membus.trans_dist::WritebackDirty      2537447                       # Transaction distribution
system.membus.trans_dist::CleanEvict           335391                       # Transaction distribution
system.membus.trans_dist::ReadExReq            708540                       # Transaction distribution
system.membus.trans_dist::ReadExResp           708540                       # Transaction distribution
system.membus.trans_dist::ReadSharedReq       2180689                       # Transaction distribution
system.membus.pkt_count_system.l2cache.mem_side_port::system.mem_ctrl.port      8651296                       # Packet count per connected requestor and responder (bytes)
system.membus.pkt_count_system.l2cache.mem_side_port::total      8651296                       # Packet count per connected requestor and responder (bytes)
system.membus.pkt_count::total                8651296                       # Packet count per connected requestor and responder (bytes)
system.membus.pkt_size_system.l2cache.mem_side_port::system.mem_ctrl.port    347307264                       # Cumulative packet size per connected requestor and responder (bytes)
system.membus.pkt_size_system.l2cache.mem_side_port::total    347307264                       # Cumulative packet size per connected requestor and responder (bytes)
system.membus.pkt_size::total               347307264                       # Cumulative packet size per connected requestor and responder (bytes)
system.membus.snoops                                0                       # Total snoops (count)
system.membus.snoopTraffic                          0                       # Total snoop traffic (bytes)
system.membus.snoop_fanout::samples           2889229                       # Request fanout histogram
system.membus.snoop_fanout::mean                    0                       # Request fanout histogram
system.membus.snoop_fanout::stdev                   0                       # Request fanout histogram
system.membus.snoop_fanout::underflows              0      0.00%      0.00% # Request fanout histogram
system.membus.snoop_fanout::0                 2889229    100.00%    100.00% # Request fanout histogram
system.membus.snoop_fanout::1                       0      0.00%    100.00% # Request fanout histogram
system.membus.snoop_fanout::overflows               0      0.00%    100.00% # Request fanout histogram
system.membus.snoop_fanout::min_value               0                       # Request fanout histogram
system.membus.snoop_fanout::max_value               0                       # Request fanout histogram
system.membus.snoop_fanout::total             2889229                       # Request fanout histogram
system.membus.power_state.pwrStateResidencyTicks::UNDEFINED 2615826595000                       # Cumulative time (in ticks) in various power states
system.membus.reqLayer2.occupancy         15911855000                       # Layer occupancy (ticks)
system.membus.reqLayer2.utilization               0.6                       # Layer utilization (%)
system.membus.respLayer0.occupancy        15313667250                       # Layer occupancy (ticks)
system.membus.respLayer0.utilization              0.6                       # Layer utilization (%)

---------- End Simulation Statistics   ----------
