
---------- Begin Simulation Statistics ----------
final_tick                               2376171629000                       # Number of ticks from beginning of simulation (restored from checkpoints and never reset)
host_inst_rate                                 446873                       # Simulator instruction rate (inst/s)
host_mem_usage                                 674444                       # Number of bytes of host memory used
host_op_rate                                   654714                       # Simulator op (including micro ops) rate (op/s)
host_seconds                                  1177.47                       # Real time elapsed on the host
host_tick_rate                             2018038063                       # Simulator tick rate (ticks/s)
sim_freq                                 1000000000000                       # Frequency of simulated ticks
sim_insts                                   526177548                       # Number of instructions simulated
sim_ops                                     770903492                       # Number of ops (including micro ops) simulated
sim_seconds                                  2.376172                       # Number of seconds simulated
sim_ticks                                2376171629000                       # Number of ticks simulated
system.cpu.Branches                           3021881                       # Number of branches fetched
system.cpu.committedInsts                   526177548                       # Number of instructions committed
system.cpu.committedOps                     770903492                       # Number of ops (including micro ops) committed
system.cpu.idle_fraction                     0.000000                       # Percentage of idle cycles
system.cpu.not_idle_fraction                 1.000000                       # Percentage of non-idle cycles
system.cpu.numCycles                       2376171629                       # number of cpu cycles simulated
system.cpu.numWorkItemsCompleted                    0                       # number of work items this cpu completed
system.cpu.numWorkItemsStarted                      0                       # number of work items this cpu started
system.cpu.num_busy_cycles               2376171628.999000                       # Number of busy cycles
system.cpu.num_cc_register_reads              8346313                       # number of times the CC registers were read
system.cpu.num_cc_register_writes            12896239                       # number of times the CC registers were written
system.cpu.num_conditional_control_insts      1622627                       # number of instructions that are conditional controls
system.cpu.num_fp_alu_accesses              724171277                       # Number of float alu accesses
system.cpu.num_fp_insts                     724171277                       # number of float instructions
system.cpu.num_fp_register_reads           1031628202                       # number of times the floating registers were read
system.cpu.num_fp_register_writes           638978695                       # number of times the floating registers were written
system.cpu.num_func_calls                     1356000                       # number of times a function call or return occured
system.cpu.num_idle_cycles                   0.001000                       # Number of idle cycles
system.cpu.num_int_alu_accesses             281643665                       # Number of integer alu accesses
system.cpu.num_int_insts                    281643665                       # number of integer instructions
system.cpu.num_int_register_reads           783869703                       # number of times the integer registers were read
system.cpu.num_int_register_writes           35235359                       # number of times the integer registers were written
system.cpu.num_load_insts                   151055025                       # Number of load instructions
system.cpu.num_mem_refs                     244655430                       # number of memory refs
system.cpu.num_store_insts                   93600405                       # Number of store instructions
system.cpu.num_vec_alu_accesses                     0                       # Number of vector alu accesses
system.cpu.num_vec_insts                            0                       # number of vector instructions
system.cpu.num_vec_register_reads                   0                       # number of times the vector registers were read
system.cpu.num_vec_register_writes                  0                       # number of times the vector registers were written
system.cpu.op_class::No_OpClass                122350      0.02%      0.02% # Class of executed instruction
system.cpu.op_class::IntAlu                 156847661     20.35%     20.36% # Class of executed instruction
system.cpu.op_class::IntMult                    38307      0.00%     20.37% # Class of executed instruction
system.cpu.op_class::IntDiv                       588      0.00%     20.37% # Class of executed instruction
system.cpu.op_class::FloatAdd               129162355     16.75%     37.12% # Class of executed instruction
system.cpu.op_class::FloatCmp                       0      0.00%     37.12% # Class of executed instruction
system.cpu.op_class::FloatCvt                       0      0.00%     37.12% # Class of executed instruction
system.cpu.op_class::FloatMult                      0      0.00%     37.12% # Class of executed instruction
system.cpu.op_class::FloatMultAcc                   0      0.00%     37.12% # Class of executed instruction
system.cpu.op_class::FloatDiv                       0      0.00%     37.12% # Class of executed instruction
system.cpu.op_class::FloatMisc                      0      0.00%     37.12% # Class of executed instruction
system.cpu.op_class::FloatSqrt                      0      0.00%     37.12% # Class of executed instruction
system.cpu.op_class::SimdAdd                      104      0.00%     37.12% # Class of executed instruction
system.cpu.op_class::SimdAddAcc                     0      0.00%     37.12% # Class of executed instruction
system.cpu.op_class::SimdAlu                 13572619      1.76%     38.88% # Class of executed instruction
system.cpu.op_class::SimdCmp                       18      0.00%     38.88% # Class of executed instruction
system.cpu.op_class::SimdCvt                     1518      0.00%     38.88% # Class of executed instruction
system.cpu.op_class::SimdMisc                   18290      0.00%     38.88% # Class of executed instruction
system.cpu.op_class::SimdMult                       0      0.00%     38.88% # Class of executed instruction
system.cpu.op_class::SimdMultAcc                    0      0.00%     38.88% # Class of executed instruction
system.cpu.op_class::SimdShift                    156      0.00%     38.88% # Class of executed instruction
system.cpu.op_class::SimdShiftAcc                   0      0.00%     38.88% # Class of executed instruction
system.cpu.op_class::SimdDiv                        0      0.00%     38.88% # Class of executed instruction
system.cpu.op_class::SimdSqrt                       0      0.00%     38.88% # Class of executed instruction
system.cpu.op_class::SimdFloatAdd           100487583     13.04%     51.92% # Class of executed instruction
system.cpu.op_class::SimdFloatAlu                   0      0.00%     51.92% # Class of executed instruction
system.cpu.op_class::SimdFloatCmp                   0      0.00%     51.92% # Class of executed instruction
system.cpu.op_class::SimdFloatCvt               11622      0.00%     51.92% # Class of executed instruction
system.cpu.op_class::SimdFloatDiv             1355195      0.18%     52.10% # Class of executed instruction
system.cpu.op_class::SimdFloatMisc                  0      0.00%     52.10% # Class of executed instruction
system.cpu.op_class::SimdFloatMult          124629795     16.17%     68.26% # Class of executed instruction
system.cpu.op_class::SimdFloatMultAcc               0      0.00%     68.26% # Class of executed instruction
system.cpu.op_class::SimdFloatSqrt                 10      0.00%     68.26% # Class of executed instruction
system.cpu.op_class::SimdReduceAdd                  0      0.00%     68.26% # Class of executed instruction
system.cpu.op_class::SimdReduceAlu                  0      0.00%     68.26% # Class of executed instruction
system.cpu.op_class::SimdReduceCmp                  0      0.00%     68.26% # Class of executed instruction
system.cpu.op_class::SimdFloatReduceAdd             0      0.00%     68.26% # Class of executed instruction
system.cpu.op_class::SimdFloatReduceCmp             0      0.00%     68.26% # Class of executed instruction
system.cpu.op_class::SimdAes                        0      0.00%     68.26% # Class of executed instruction
system.cpu.op_class::SimdAesMix                     0      0.00%     68.26% # Class of executed instruction
system.cpu.op_class::SimdSha1Hash                   0      0.00%     68.26% # Class of executed instruction
system.cpu.op_class::SimdSha1Hash2                  0      0.00%     68.26% # Class of executed instruction
system.cpu.op_class::SimdSha256Hash                 0      0.00%     68.26% # Class of executed instruction
system.cpu.op_class::SimdSha256Hash2                0      0.00%     68.26% # Class of executed instruction
system.cpu.op_class::SimdShaSigma2                  0      0.00%     68.26% # Class of executed instruction
system.cpu.op_class::SimdShaSigma3                  0      0.00%     68.26% # Class of executed instruction
system.cpu.op_class::SimdPredAlu                    0      0.00%     68.26% # Class of executed instruction
system.cpu.op_class::MemRead                  1225878      0.16%     68.42% # Class of executed instruction
system.cpu.op_class::MemWrite                 8411186      1.09%     69.51% # Class of executed instruction
system.cpu.op_class::FloatMemRead           149829147     19.44%     88.95% # Class of executed instruction
system.cpu.op_class::FloatMemWrite           85189219     11.05%    100.00% # Class of executed instruction
system.cpu.op_class::IprAccess                      0      0.00%    100.00% # Class of executed instruction
system.cpu.op_class::InstPrefetch                   0      0.00%    100.00% # Class of executed instruction
system.cpu.op_class::total                  770903601                       # Class of executed instruction
system.cpu.workload.numSyscalls                    85                       # Number of system calls
system.l2bus.snoop_filter.hit_multi_requests            0                       # Number of requests hitting in the snoop filter with multiple (>1) holders of the requested data.
system.l2bus.snoop_filter.hit_multi_snoops            0                       # Number of snoops hitting in the snoop filter with multiple (>1) holders of the requested data.
system.l2bus.snoop_filter.hit_single_requests      4513447                       # Number of requests hitting in the snoop filter with a single holder of the requested data.
system.l2bus.snoop_filter.hit_single_snoops       433671                       # Number of snoops hitting in the snoop filter with a single holder of the requested data.
system.l2bus.snoop_filter.tot_requests        9028174                       # Total number of requests made to the snoop filter.
system.l2bus.snoop_filter.tot_snoops           433671                       # Total number of snoops made to the snoop filter.
system.membus.snoop_filter.hit_multi_requests            0                       # Number of requests hitting in the snoop filter with multiple (>1) holders of the requested data.
system.membus.snoop_filter.hit_multi_snoops            0                       # Number of snoops hitting in the snoop filter with multiple (>1) holders of the requested data.
system.membus.snoop_filter.hit_single_requests      1103528                       # Number of requests hitting in the snoop filter with a single holder of the requested data.
system.membus.snoop_filter.hit_single_snoops            0                       # Number of snoops hitting in the snoop filter with a single holder of the requested data.
system.membus.snoop_filter.tot_requests       2209485                       # Total number of requests made to the snoop filter.
system.membus.snoop_filter.tot_snoops               0                       # Total number of snoops made to the snoop filter.
system.clk_domain.clock                          1000                       # Clock period in ticks
system.clk_domain.voltage_domain.voltage            1                       # Voltage in Volts
system.cpu.dcache.demand_hits::.cpu.data    243143456                       # number of demand (read+write) hits
system.cpu.dcache.demand_hits::total        243143456                       # number of demand (read+write) hits
system.cpu.dcache.overall_hits::.cpu.data    243143456                       # number of overall hits
system.cpu.dcache.overall_hits::total       243143456                       # number of overall hits
system.cpu.dcache.demand_misses::.cpu.data      1512015                       # number of demand (read+write) misses
system.cpu.dcache.demand_misses::total        1512015                       # number of demand (read+write) misses
system.cpu.dcache.overall_misses::.cpu.data      1512015                       # number of overall misses
system.cpu.dcache.overall_misses::total       1512015                       # number of overall misses
system.cpu.dcache.demand_miss_latency::.cpu.data 123592171000                       # number of demand (read+write) miss cycles
system.cpu.dcache.demand_miss_latency::total 123592171000                       # number of demand (read+write) miss cycles
system.cpu.dcache.overall_miss_latency::.cpu.data 123592171000                       # number of overall miss cycles
system.cpu.dcache.overall_miss_latency::total 123592171000                       # number of overall miss cycles
system.cpu.dcache.demand_accesses::.cpu.data    244655471                       # number of demand (read+write) accesses
system.cpu.dcache.demand_accesses::total    244655471                       # number of demand (read+write) accesses
system.cpu.dcache.overall_accesses::.cpu.data    244655471                       # number of overall (read+write) accesses
system.cpu.dcache.overall_accesses::total    244655471                       # number of overall (read+write) accesses
system.cpu.dcache.demand_miss_rate::.cpu.data     0.006180                       # miss rate for demand accesses
system.cpu.dcache.demand_miss_rate::total     0.006180                       # miss rate for demand accesses
system.cpu.dcache.overall_miss_rate::.cpu.data     0.006180                       # miss rate for overall accesses
system.cpu.dcache.overall_miss_rate::total     0.006180                       # miss rate for overall accesses
system.cpu.dcache.demand_avg_miss_latency::.cpu.data 81740.042923                       # average overall miss latency
system.cpu.dcache.demand_avg_miss_latency::total 81740.042923                       # average overall miss latency
system.cpu.dcache.overall_avg_miss_latency::.cpu.data 81740.042923                       # average overall miss latency
system.cpu.dcache.overall_avg_miss_latency::total 81740.042923                       # average overall miss latency
system.cpu.dcache.blocked_cycles::no_mshrs            0                       # number of cycles access was blocked
system.cpu.dcache.blocked_cycles::no_targets            0                       # number of cycles access was blocked
system.cpu.dcache.blocked::no_mshrs                 0                       # number of cycles access was blocked
system.cpu.dcache.blocked::no_targets               0                       # number of cycles access was blocked
system.cpu.dcache.avg_blocked_cycles::no_mshrs          nan                       # average number of cycles each access was blocked
system.cpu.dcache.avg_blocked_cycles::no_targets          nan                       # average number of cycles each access was blocked
system.cpu.dcache.writebacks::.writebacks       633171                       # number of writebacks
system.cpu.dcache.writebacks::total            633171                       # number of writebacks
system.cpu.dcache.demand_mshr_misses::.cpu.data      1512015                       # number of demand (read+write) MSHR misses
system.cpu.dcache.demand_mshr_misses::total      1512015                       # number of demand (read+write) MSHR misses
system.cpu.dcache.overall_mshr_misses::.cpu.data      1512015                       # number of overall MSHR misses
system.cpu.dcache.overall_mshr_misses::total      1512015                       # number of overall MSHR misses
system.cpu.dcache.demand_mshr_miss_latency::.cpu.data 120568141000                       # number of demand (read+write) MSHR miss cycles
system.cpu.dcache.demand_mshr_miss_latency::total 120568141000                       # number of demand (read+write) MSHR miss cycles
system.cpu.dcache.overall_mshr_miss_latency::.cpu.data 120568141000                       # number of overall MSHR miss cycles
system.cpu.dcache.overall_mshr_miss_latency::total 120568141000                       # number of overall MSHR miss cycles
system.cpu.dcache.demand_mshr_miss_rate::.cpu.data     0.006180                       # mshr miss rate for demand accesses
system.cpu.dcache.demand_mshr_miss_rate::total     0.006180                       # mshr miss rate for demand accesses
system.cpu.dcache.overall_mshr_miss_rate::.cpu.data     0.006180                       # mshr miss rate for overall accesses
system.cpu.dcache.overall_mshr_miss_rate::total     0.006180                       # mshr miss rate for overall accesses
system.cpu.dcache.demand_avg_mshr_miss_latency::.cpu.data 79740.042923                       # average overall mshr miss latency
system.cpu.dcache.demand_avg_mshr_miss_latency::total 79740.042923                       # average overall mshr miss latency
system.cpu.dcache.overall_avg_mshr_miss_latency::.cpu.data 79740.042923                       # average overall mshr miss latency
system.cpu.dcache.overall_avg_mshr_miss_latency::total 79740.042923                       # average overall mshr miss latency
system.cpu.dcache.replacements                1510991                       # number of replacements
system.cpu.dcache.ReadReq_hits::.cpu.data    149746966                       # number of ReadReq hits
system.cpu.dcache.ReadReq_hits::total       149746966                       # number of ReadReq hits
system.cpu.dcache.ReadReq_misses::.cpu.data      1308087                       # number of ReadReq misses
system.cpu.dcache.ReadReq_misses::total       1308087                       # number of ReadReq misses
system.cpu.dcache.ReadReq_miss_latency::.cpu.data 104124646000                       # number of ReadReq miss cycles
system.cpu.dcache.ReadReq_miss_latency::total 104124646000                       # number of ReadReq miss cycles
system.cpu.dcache.ReadReq_accesses::.cpu.data    151055053                       # number of ReadReq accesses(hits+misses)
system.cpu.dcache.ReadReq_accesses::total    151055053                       # number of ReadReq accesses(hits+misses)
system.cpu.dcache.ReadReq_miss_rate::.cpu.data     0.008660                       # miss rate for ReadReq accesses
system.cpu.dcache.ReadReq_miss_rate::total     0.008660                       # miss rate for ReadReq accesses
system.cpu.dcache.ReadReq_avg_miss_latency::.cpu.data 79600.703929                       # average ReadReq miss latency
system.cpu.dcache.ReadReq_avg_miss_latency::total 79600.703929                       # average ReadReq miss latency
system.cpu.dcache.ReadReq_mshr_misses::.cpu.data      1308087                       # number of ReadReq MSHR misses
system.cpu.dcache.ReadReq_mshr_misses::total      1308087                       # number of ReadReq MSHR misses
system.cpu.dcache.ReadReq_mshr_miss_latency::.cpu.data 101508472000                       # number of ReadReq MSHR miss cycles
system.cpu.dcache.ReadReq_mshr_miss_latency::total 101508472000                       # number of ReadReq MSHR miss cycles
system.cpu.dcache.ReadReq_mshr_miss_rate::.cpu.data     0.008660                       # mshr miss rate for ReadReq accesses
system.cpu.dcache.ReadReq_mshr_miss_rate::total     0.008660                       # mshr miss rate for ReadReq accesses
system.cpu.dcache.ReadReq_avg_mshr_miss_latency::.cpu.data 77600.703929                       # average ReadReq mshr miss latency
system.cpu.dcache.ReadReq_avg_mshr_miss_latency::total 77600.703929                       # average ReadReq mshr miss latency
system.cpu.dcache.WriteReq_hits::.cpu.data     93396490                       # number of WriteReq hits
system.cpu.dcache.WriteReq_hits::total       93396490                       # number of WriteReq hits
system.cpu.dcache.WriteReq_misses::.cpu.data       203928                       # number of WriteReq misses
system.cpu.dcache.WriteReq_misses::total       203928                       # number of WriteReq misses
system.cpu.dcache.WriteReq_miss_latency::.cpu.data  19467525000                       # number of WriteReq miss cycles
system.cpu.dcache.WriteReq_miss_latency::total  19467525000                       # number of WriteReq miss cycles
system.cpu.dcache.WriteReq_accesses::.cpu.data     93600418                       # number of WriteReq accesses(hits+misses)
system.cpu.dcache.WriteReq_accesses::total     93600418                       # number of WriteReq accesses(hits+misses)
system.cpu.dcache.WriteReq_miss_rate::.cpu.data     0.002179                       # miss rate for WriteReq accesses
system.cpu.dcache.WriteReq_miss_rate::total     0.002179                       # miss rate for WriteReq accesses
system.cpu.dcache.WriteReq_avg_miss_latency::.cpu.data 95462.736848                       # average WriteReq miss latency
system.cpu.dcache.WriteReq_avg_miss_latency::total 95462.736848                       # average WriteReq miss latency
system.cpu.dcache.WriteReq_mshr_misses::.cpu.data       203928                       # number of WriteReq MSHR misses
system.cpu.dcache.WriteReq_mshr_misses::total       203928                       # number of WriteReq MSHR misses
system.cpu.dcache.WriteReq_mshr_miss_latency::.cpu.data  19059669000                       # number of WriteReq MSHR miss cycles
system.cpu.dcache.WriteReq_mshr_miss_latency::total  19059669000                       # number of WriteReq MSHR miss cycles
system.cpu.dcache.WriteReq_mshr_miss_rate::.cpu.data     0.002179                       # mshr miss rate for WriteReq accesses
system.cpu.dcache.WriteReq_mshr_miss_rate::total     0.002179                       # mshr miss rate for WriteReq accesses
system.cpu.dcache.WriteReq_avg_mshr_miss_latency::.cpu.data 93462.736848                       # average WriteReq mshr miss latency
system.cpu.dcache.WriteReq_avg_mshr_miss_latency::total 93462.736848                       # average WriteReq mshr miss latency
system.cpu.dcache.power_state.pwrStateResidencyTicks::UNDEFINED 2376171629000                       # Cumulative time (in ticks) in various power states
system.cpu.dcache.tags.tagsinuse          1023.849712                       # Cycle average of tags in use
system.cpu.dcache.tags.total_refs           244655471                       # Total number of references to valid blocks.
system.cpu.dcache.tags.sampled_refs           1512015                       # Sample count of references to valid blocks.
system.cpu.dcache.tags.avg_refs            161.807569                       # Average number of references to valid blocks.
system.cpu.dcache.tags.warmup_cycle            224000                       # Cycle when the warmup percentage was hit.
system.cpu.dcache.tags.occ_blocks::.cpu.data  1023.849712                       # Average occupied blocks per requestor
system.cpu.dcache.tags.occ_percent::.cpu.data     0.999853                       # Average percentage of cache occupancy
system.cpu.dcache.tags.occ_percent::total     0.999853                       # Average percentage of cache occupancy
system.cpu.dcache.tags.occ_task_id_blocks::1024         1024                       # Occupied blocks per task id
system.cpu.dcache.tags.age_task_id_blocks_1024::0           27                       # Occupied blocks per task id
system.cpu.dcache.tags.age_task_id_blocks_1024::1           84                       # Occupied blocks per task id
system.cpu.dcache.tags.age_task_id_blocks_1024::2          498                       # Occupied blocks per task id
system.cpu.dcache.tags.age_task_id_blocks_1024::3          415                       # Occupied blocks per task id
system.cpu.dcache.tags.occ_task_id_percent::1024            1                       # Percentage of cache occupancy per task id
system.cpu.dcache.tags.tag_accesses         490822957                       # Number of tag accesses
system.cpu.dcache.tags.data_accesses        490822957                       # Number of data accesses
system.cpu.dcache.tags.power_state.pwrStateResidencyTicks::UNDEFINED 2376171629000                       # Cumulative time (in ticks) in various power states
system.cpu.dtb.rdAccesses                   151055054                       # TLB accesses on read requests
system.cpu.dtb.wrAccesses                    93600441                       # TLB accesses on write requests
system.cpu.dtb.rdMisses                          4202                       # TLB misses on read requests
system.cpu.dtb.wrMisses                          2551                       # TLB misses on write requests
system.cpu.dtb.walker.power_state.pwrStateResidencyTicks::UNDEFINED 2376171629000                       # Cumulative time (in ticks) in various power states
system.cpu.icache.demand_hits::.cpu.inst    841887646                       # number of demand (read+write) hits
system.cpu.icache.demand_hits::total        841887646                       # number of demand (read+write) hits
system.cpu.icache.overall_hits::.cpu.inst    841887646                       # number of overall hits
system.cpu.icache.overall_hits::total       841887646                       # number of overall hits
system.cpu.icache.demand_misses::.cpu.inst      3002712                       # number of demand (read+write) misses
system.cpu.icache.demand_misses::total        3002712                       # number of demand (read+write) misses
system.cpu.icache.overall_misses::.cpu.inst      3002712                       # number of overall misses
system.cpu.icache.overall_misses::total       3002712                       # number of overall misses
system.cpu.icache.demand_miss_latency::.cpu.inst  82517322000                       # number of demand (read+write) miss cycles
system.cpu.icache.demand_miss_latency::total  82517322000                       # number of demand (read+write) miss cycles
system.cpu.icache.overall_miss_latency::.cpu.inst  82517322000                       # number of overall miss cycles
system.cpu.icache.overall_miss_latency::total  82517322000                       # number of overall miss cycles
system.cpu.icache.demand_accesses::.cpu.inst    844890358                       # number of demand (read+write) accesses
system.cpu.icache.demand_accesses::total    844890358                       # number of demand (read+write) accesses
system.cpu.icache.overall_accesses::.cpu.inst    844890358                       # number of overall (read+write) accesses
system.cpu.icache.overall_accesses::total    844890358                       # number of overall (read+write) accesses
system.cpu.icache.demand_miss_rate::.cpu.inst     0.003554                       # miss rate for demand accesses
system.cpu.icache.demand_miss_rate::total     0.003554                       # miss rate for demand accesses
system.cpu.icache.overall_miss_rate::.cpu.inst     0.003554                       # miss rate for overall accesses
system.cpu.icache.overall_miss_rate::total     0.003554                       # miss rate for overall accesses
system.cpu.icache.demand_avg_miss_latency::.cpu.inst 27480.931238                       # average overall miss latency
system.cpu.icache.demand_avg_miss_latency::total 27480.931238                       # average overall miss latency
system.cpu.icache.overall_avg_miss_latency::.cpu.inst 27480.931238                       # average overall miss latency
system.cpu.icache.overall_avg_miss_latency::total 27480.931238                       # average overall miss latency
system.cpu.icache.blocked_cycles::no_mshrs            0                       # number of cycles access was blocked
system.cpu.icache.blocked_cycles::no_targets            0                       # number of cycles access was blocked
system.cpu.icache.blocked::no_mshrs                 0                       # number of cycles access was blocked
system.cpu.icache.blocked::no_targets               0                       # number of cycles access was blocked
system.cpu.icache.avg_blocked_cycles::no_mshrs          nan                       # average number of cycles each access was blocked
system.cpu.icache.avg_blocked_cycles::no_targets          nan                       # average number of cycles each access was blocked
system.cpu.icache.demand_mshr_misses::.cpu.inst      3002712                       # number of demand (read+write) MSHR misses
system.cpu.icache.demand_mshr_misses::total      3002712                       # number of demand (read+write) MSHR misses
system.cpu.icache.overall_mshr_misses::.cpu.inst      3002712                       # number of overall MSHR misses
system.cpu.icache.overall_mshr_misses::total      3002712                       # number of overall MSHR misses
system.cpu.icache.demand_mshr_miss_latency::.cpu.inst  76511898000                       # number of demand (read+write) MSHR miss cycles
system.cpu.icache.demand_mshr_miss_latency::total  76511898000                       # number of demand (read+write) MSHR miss cycles
system.cpu.icache.overall_mshr_miss_latency::.cpu.inst  76511898000                       # number of overall MSHR miss cycles
system.cpu.icache.overall_mshr_miss_latency::total  76511898000                       # number of overall MSHR miss cycles
system.cpu.icache.demand_mshr_miss_rate::.cpu.inst     0.003554                       # mshr miss rate for demand accesses
system.cpu.icache.demand_mshr_miss_rate::total     0.003554                       # mshr miss rate for demand accesses
system.cpu.icache.overall_mshr_miss_rate::.cpu.inst     0.003554                       # mshr miss rate for overall accesses
system.cpu.icache.overall_mshr_miss_rate::total     0.003554                       # mshr miss rate for overall accesses
system.cpu.icache.demand_avg_mshr_miss_latency::.cpu.inst 25480.931238                       # average overall mshr miss latency
system.cpu.icache.demand_avg_mshr_miss_latency::total 25480.931238                       # average overall mshr miss latency
system.cpu.icache.overall_avg_mshr_miss_latency::.cpu.inst 25480.931238                       # average overall mshr miss latency
system.cpu.icache.overall_avg_mshr_miss_latency::total 25480.931238                       # average overall mshr miss latency
system.cpu.icache.replacements                3002456                       # number of replacements
system.cpu.icache.ReadReq_hits::.cpu.inst    841887646                       # number of ReadReq hits
system.cpu.icache.ReadReq_hits::total       841887646                       # number of ReadReq hits
system.cpu.icache.ReadReq_misses::.cpu.inst      3002712                       # number of ReadReq misses
system.cpu.icache.ReadReq_misses::total       3002712                       # number of ReadReq misses
system.cpu.icache.ReadReq_miss_latency::.cpu.inst  82517322000                       # number of ReadReq miss cycles
system.cpu.icache.ReadReq_miss_latency::total  82517322000                       # number of ReadReq miss cycles
system.cpu.icache.ReadReq_accesses::.cpu.inst    844890358                       # number of ReadReq accesses(hits+misses)
system.cpu.icache.ReadReq_accesses::total    844890358                       # number of ReadReq accesses(hits+misses)
system.cpu.icache.ReadReq_miss_rate::.cpu.inst     0.003554                       # miss rate for ReadReq accesses
system.cpu.icache.ReadReq_miss_rate::total     0.003554                       # miss rate for ReadReq accesses
system.cpu.icache.ReadReq_avg_miss_latency::.cpu.inst 27480.931238                       # average ReadReq miss latency
system.cpu.icache.ReadReq_avg_miss_latency::total 27480.931238                       # average ReadReq miss latency
system.cpu.icache.ReadReq_mshr_misses::.cpu.inst      3002712                       # number of ReadReq MSHR misses
system.cpu.icache.ReadReq_mshr_misses::total      3002712                       # number of ReadReq MSHR misses
system.cpu.icache.ReadReq_mshr_miss_latency::.cpu.inst  76511898000                       # number of ReadReq MSHR miss cycles
system.cpu.icache.ReadReq_mshr_miss_latency::total  76511898000                       # number of ReadReq MSHR miss cycles
system.cpu.icache.ReadReq_mshr_miss_rate::.cpu.inst     0.003554                       # mshr miss rate for ReadReq accesses
system.cpu.icache.ReadReq_mshr_miss_rate::total     0.003554                       # mshr miss rate for ReadReq accesses
system.cpu.icache.ReadReq_avg_mshr_miss_latency::.cpu.inst 25480.931238                       # average ReadReq mshr miss latency
system.cpu.icache.ReadReq_avg_mshr_miss_latency::total 25480.931238                       # average ReadReq mshr miss latency
system.cpu.icache.power_state.pwrStateResidencyTicks::UNDEFINED 2376171629000                       # Cumulative time (in ticks) in various power states
system.cpu.icache.tags.tagsinuse           255.994581                       # Cycle average of tags in use
system.cpu.icache.tags.total_refs           844890358                       # Total number of references to valid blocks.
system.cpu.icache.tags.sampled_refs           3002712                       # Sample count of references to valid blocks.
system.cpu.icache.tags.avg_refs            281.375756                       # Average number of references to valid blocks.
system.cpu.icache.tags.warmup_cycle            107000                       # Cycle when the warmup percentage was hit.
system.cpu.icache.tags.occ_blocks::.cpu.inst   255.994581                       # Average occupied blocks per requestor
system.cpu.icache.tags.occ_percent::.cpu.inst     0.999979                       # Average percentage of cache occupancy
system.cpu.icache.tags.occ_percent::total     0.999979                       # Average percentage of cache occupancy
system.cpu.icache.tags.occ_task_id_blocks::1024          256                       # Occupied blocks per task id
system.cpu.icache.tags.age_task_id_blocks_1024::0           35                       # Occupied blocks per task id
system.cpu.icache.tags.age_task_id_blocks_1024::1          106                       # Occupied blocks per task id
system.cpu.icache.tags.age_task_id_blocks_1024::2          107                       # Occupied blocks per task id
system.cpu.icache.tags.age_task_id_blocks_1024::3            8                       # Occupied blocks per task id
system.cpu.icache.tags.occ_task_id_percent::1024            1                       # Percentage of cache occupancy per task id
system.cpu.icache.tags.tag_accesses        1692783428                       # Number of tag accesses
system.cpu.icache.tags.data_accesses       1692783428                       # Number of data accesses
system.cpu.icache.tags.power_state.pwrStateResidencyTicks::UNDEFINED 2376171629000                       # Cumulative time (in ticks) in various power states
system.cpu.interrupts.clk_domain.clock          16000                       # Clock period in ticks
system.cpu.itb.rdAccesses                           0                       # TLB accesses on read requests
system.cpu.itb.wrAccesses                   844890358                       # TLB accesses on write requests
system.cpu.itb.rdMisses                             0                       # TLB misses on read requests
system.cpu.itb.wrMisses                           158                       # TLB misses on write requests
system.cpu.itb.walker.power_state.pwrStateResidencyTicks::UNDEFINED 2376171629000                       # Cumulative time (in ticks) in various power states
system.cpu.power_state.pwrStateResidencyTicks::ON 2376171629000                       # Cumulative time (in ticks) in various power states
system.cpu.thread_0.numInsts                        0                       # Number of Instructions committed
system.cpu.thread_0.numOps                          0                       # Number of Ops committed
system.cpu.thread_0.numMemRefs                      0                       # Number of Memory References
system.l2bus.trans_dist::ReadResp             4310799                       # Transaction distribution
system.l2bus.trans_dist::WritebackDirty       1041864                       # Transaction distribution
system.l2bus.trans_dist::CleanEvict           4751666                       # Transaction distribution
system.l2bus.trans_dist::ReadExReq             203928                       # Transaction distribution
system.l2bus.trans_dist::ReadExResp            203928                       # Transaction distribution
system.l2bus.trans_dist::ReadSharedReq        4310799                       # Transaction distribution
system.l2bus.pkt_count_system.cpu.icache.mem_side_port::system.l2cache.cpu_side_port      9007880                       # Packet count per connected requestor and responder (bytes)
system.l2bus.pkt_count_system.cpu.dcache.mem_side_port::system.l2cache.cpu_side_port      4535021                       # Packet count per connected requestor and responder (bytes)
system.l2bus.pkt_count::total                13542901                       # Packet count per connected requestor and responder (bytes)
system.l2bus.pkt_size_system.cpu.icache.mem_side_port::system.l2cache.cpu_side_port    192173568                       # Cumulative packet size per connected requestor and responder (bytes)
system.l2bus.pkt_size_system.cpu.dcache.mem_side_port::system.l2cache.cpu_side_port    137291904                       # Cumulative packet size per connected requestor and responder (bytes)
system.l2bus.pkt_size::total                329465472                       # Cumulative packet size per connected requestor and responder (bytes)
system.l2bus.snoops                           1280083                       # Total snoops (count)
system.l2bus.snoopTraffic                    26156352                       # Total snoop traffic (bytes)
system.l2bus.snoop_fanout::samples            5794810                       # Request fanout histogram
system.l2bus.snoop_fanout::mean              0.074838                       # Request fanout histogram
system.l2bus.snoop_fanout::stdev             0.263130                       # Request fanout histogram
system.l2bus.snoop_fanout::underflows               0      0.00%      0.00% # Request fanout histogram
system.l2bus.snoop_fanout::0                  5361139     92.52%     92.52% # Request fanout histogram
system.l2bus.snoop_fanout::1                   433671      7.48%    100.00% # Request fanout histogram
system.l2bus.snoop_fanout::2                        0      0.00%    100.00% # Request fanout histogram
system.l2bus.snoop_fanout::overflows                0      0.00%    100.00% # Request fanout histogram
system.l2bus.snoop_fanout::min_value                0                       # Request fanout histogram
system.l2bus.snoop_fanout::max_value                1                       # Request fanout histogram
system.l2bus.snoop_fanout::total              5794810                       # Request fanout histogram
system.l2bus.power_state.pwrStateResidencyTicks::UNDEFINED 2376171629000                       # Cumulative time (in ticks) in various power states
system.l2bus.reqLayer0.occupancy          10294516000                       # Layer occupancy (ticks)
system.l2bus.reqLayer0.utilization                0.4                       # Layer utilization (%)
system.l2bus.respLayer0.occupancy          9008136000                       # Layer occupancy (ticks)
system.l2bus.respLayer0.utilization               0.4                       # Layer utilization (%)
system.l2bus.respLayer1.occupancy          4536045000                       # Layer occupancy (ticks)
system.l2bus.respLayer1.utilization               0.2                       # Layer utilization (%)
system.l2cache.demand_hits::.cpu.inst         2944159                       # number of demand (read+write) hits
system.l2cache.demand_hits::.cpu.data          464611                       # number of demand (read+write) hits
system.l2cache.demand_hits::total             3408770                       # number of demand (read+write) hits
system.l2cache.overall_hits::.cpu.inst        2944159                       # number of overall hits
system.l2cache.overall_hits::.cpu.data         464611                       # number of overall hits
system.l2cache.overall_hits::total            3408770                       # number of overall hits
system.l2cache.demand_misses::.cpu.inst         58553                       # number of demand (read+write) misses
system.l2cache.demand_misses::.cpu.data       1047404                       # number of demand (read+write) misses
system.l2cache.demand_misses::total           1105957                       # number of demand (read+write) misses
system.l2cache.overall_misses::.cpu.inst        58553                       # number of overall misses
system.l2cache.overall_misses::.cpu.data      1047404                       # number of overall misses
system.l2cache.overall_misses::total          1105957                       # number of overall misses
system.l2cache.demand_miss_latency::.cpu.inst   5676202000                       # number of demand (read+write) miss cycles
system.l2cache.demand_miss_latency::.cpu.data 106270826000                       # number of demand (read+write) miss cycles
system.l2cache.demand_miss_latency::total 111947028000                       # number of demand (read+write) miss cycles
system.l2cache.overall_miss_latency::.cpu.inst   5676202000                       # number of overall miss cycles
system.l2cache.overall_miss_latency::.cpu.data 106270826000                       # number of overall miss cycles
system.l2cache.overall_miss_latency::total 111947028000                       # number of overall miss cycles
system.l2cache.demand_accesses::.cpu.inst      3002712                       # number of demand (read+write) accesses
system.l2cache.demand_accesses::.cpu.data      1512015                       # number of demand (read+write) accesses
system.l2cache.demand_accesses::total         4514727                       # number of demand (read+write) accesses
system.l2cache.overall_accesses::.cpu.inst      3002712                       # number of overall (read+write) accesses
system.l2cache.overall_accesses::.cpu.data      1512015                       # number of overall (read+write) accesses
system.l2cache.overall_accesses::total        4514727                       # number of overall (read+write) accesses
system.l2cache.demand_miss_rate::.cpu.inst     0.019500                       # miss rate for demand accesses
system.l2cache.demand_miss_rate::.cpu.data     0.692721                       # miss rate for demand accesses
system.l2cache.demand_miss_rate::total       0.244967                       # miss rate for demand accesses
system.l2cache.overall_miss_rate::.cpu.inst     0.019500                       # miss rate for overall accesses
system.l2cache.overall_miss_rate::.cpu.data     0.692721                       # miss rate for overall accesses
system.l2cache.overall_miss_rate::total      0.244967                       # miss rate for overall accesses
system.l2cache.demand_avg_miss_latency::.cpu.inst 96941.266886                       # average overall miss latency
system.l2cache.demand_avg_miss_latency::.cpu.data 101461.161118                       # average overall miss latency
system.l2cache.demand_avg_miss_latency::total 101221.863056                       # average overall miss latency
system.l2cache.overall_avg_miss_latency::.cpu.inst 96941.266886                       # average overall miss latency
system.l2cache.overall_avg_miss_latency::.cpu.data 101461.161118                       # average overall miss latency
system.l2cache.overall_avg_miss_latency::total 101221.863056                       # average overall miss latency
system.l2cache.blocked_cycles::no_mshrs             0                       # number of cycles access was blocked
system.l2cache.blocked_cycles::no_targets            0                       # number of cycles access was blocked
system.l2cache.blocked::no_mshrs                    0                       # number of cycles access was blocked
system.l2cache.blocked::no_targets                  0                       # number of cycles access was blocked
system.l2cache.avg_blocked_cycles::no_mshrs          nan                       # average number of cycles each access was blocked
system.l2cache.avg_blocked_cycles::no_targets          nan                       # average number of cycles each access was blocked
system.l2cache.writebacks::.writebacks         408693                       # number of writebacks
system.l2cache.writebacks::total               408693                       # number of writebacks
system.l2cache.demand_mshr_misses::.cpu.inst        58553                       # number of demand (read+write) MSHR misses
system.l2cache.demand_mshr_misses::.cpu.data      1047404                       # number of demand (read+write) MSHR misses
system.l2cache.demand_mshr_misses::total      1105957                       # number of demand (read+write) MSHR misses
system.l2cache.overall_mshr_misses::.cpu.inst        58553                       # number of overall MSHR misses
system.l2cache.overall_mshr_misses::.cpu.data      1047404                       # number of overall MSHR misses
system.l2cache.overall_mshr_misses::total      1105957                       # number of overall MSHR misses
system.l2cache.demand_mshr_miss_latency::.cpu.inst   4505142000                       # number of demand (read+write) MSHR miss cycles
system.l2cache.demand_mshr_miss_latency::.cpu.data  85322746000                       # number of demand (read+write) MSHR miss cycles
system.l2cache.demand_mshr_miss_latency::total  89827888000                       # number of demand (read+write) MSHR miss cycles
system.l2cache.overall_mshr_miss_latency::.cpu.inst   4505142000                       # number of overall MSHR miss cycles
system.l2cache.overall_mshr_miss_latency::.cpu.data  85322746000                       # number of overall MSHR miss cycles
system.l2cache.overall_mshr_miss_latency::total  89827888000                       # number of overall MSHR miss cycles
system.l2cache.demand_mshr_miss_rate::.cpu.inst     0.019500                       # mshr miss rate for demand accesses
system.l2cache.demand_mshr_miss_rate::.cpu.data     0.692721                       # mshr miss rate for demand accesses
system.l2cache.demand_mshr_miss_rate::total     0.244967                       # mshr miss rate for demand accesses
system.l2cache.overall_mshr_miss_rate::.cpu.inst     0.019500                       # mshr miss rate for overall accesses
system.l2cache.overall_mshr_miss_rate::.cpu.data     0.692721                       # mshr miss rate for overall accesses
system.l2cache.overall_mshr_miss_rate::total     0.244967                       # mshr miss rate for overall accesses
system.l2cache.demand_avg_mshr_miss_latency::.cpu.inst 76941.266886                       # average overall mshr miss latency
system.l2cache.demand_avg_mshr_miss_latency::.cpu.data 81461.161118                       # average overall mshr miss latency
system.l2cache.demand_avg_mshr_miss_latency::total 81221.863056                       # average overall mshr miss latency
system.l2cache.overall_avg_mshr_miss_latency::.cpu.inst 76941.266886                       # average overall mshr miss latency
system.l2cache.overall_avg_mshr_miss_latency::.cpu.data 81461.161118                       # average overall mshr miss latency
system.l2cache.overall_avg_mshr_miss_latency::total 81221.863056                       # average overall mshr miss latency
system.l2cache.replacements                   1269269                       # number of replacements
system.l2cache.WritebackDirty_hits::.writebacks       631437                       # number of WritebackDirty hits
system.l2cache.WritebackDirty_hits::total       631437                       # number of WritebackDirty hits
system.l2cache.WritebackDirty_misses::.writebacks         1734                       # number of WritebackDirty misses
system.l2cache.WritebackDirty_misses::total         1734                       # number of WritebackDirty misses
system.l2cache.WritebackDirty_accesses::.writebacks       633171                       # number of WritebackDirty accesses(hits+misses)
system.l2cache.WritebackDirty_accesses::total       633171                       # number of WritebackDirty accesses(hits+misses)
system.l2cache.WritebackDirty_miss_rate::.writebacks     0.002739                       # miss rate for WritebackDirty accesses
system.l2cache.WritebackDirty_miss_rate::total     0.002739                       # miss rate for WritebackDirty accesses
system.l2cache.WritebackDirty_mshr_misses::.writebacks         1734                       # number of WritebackDirty MSHR misses
system.l2cache.WritebackDirty_mshr_misses::total         1734                       # number of WritebackDirty MSHR misses
system.l2cache.WritebackDirty_mshr_miss_rate::.writebacks     0.002739                       # mshr miss rate for WritebackDirty accesses
system.l2cache.WritebackDirty_mshr_miss_rate::total     0.002739                       # mshr miss rate for WritebackDirty accesses
system.l2cache.CleanEvict_mshr_misses::.writebacks       255382                       # number of CleanEvict MSHR misses
system.l2cache.CleanEvict_mshr_misses::total       255382                       # number of CleanEvict MSHR misses
system.l2cache.CleanEvict_mshr_miss_rate::.writebacks          inf                       # mshr miss rate for CleanEvict accesses
system.l2cache.CleanEvict_mshr_miss_rate::total          inf                       # mshr miss rate for CleanEvict accesses
system.l2cache.ReadExReq_hits::.cpu.data        23480                       # number of ReadExReq hits
system.l2cache.ReadExReq_hits::total            23480                       # number of ReadExReq hits
system.l2cache.ReadExReq_misses::.cpu.data       180448                       # number of ReadExReq misses
system.l2cache.ReadExReq_misses::total         180448                       # number of ReadExReq misses
system.l2cache.ReadExReq_miss_latency::.cpu.data  17952293000                       # number of ReadExReq miss cycles
system.l2cache.ReadExReq_miss_latency::total  17952293000                       # number of ReadExReq miss cycles
system.l2cache.ReadExReq_accesses::.cpu.data       203928                       # number of ReadExReq accesses(hits+misses)
system.l2cache.ReadExReq_accesses::total       203928                       # number of ReadExReq accesses(hits+misses)
system.l2cache.ReadExReq_miss_rate::.cpu.data     0.884861                       # miss rate for ReadExReq accesses
system.l2cache.ReadExReq_miss_rate::total     0.884861                       # miss rate for ReadExReq accesses
system.l2cache.ReadExReq_avg_miss_latency::.cpu.data 99487.348156                       # average ReadExReq miss latency
system.l2cache.ReadExReq_avg_miss_latency::total 99487.348156                       # average ReadExReq miss latency
system.l2cache.ReadExReq_mshr_misses::.cpu.data       180448                       # number of ReadExReq MSHR misses
system.l2cache.ReadExReq_mshr_misses::total       180448                       # number of ReadExReq MSHR misses
system.l2cache.ReadExReq_mshr_miss_latency::.cpu.data  14343333000                       # number of ReadExReq MSHR miss cycles
system.l2cache.ReadExReq_mshr_miss_latency::total  14343333000                       # number of ReadExReq MSHR miss cycles
system.l2cache.ReadExReq_mshr_miss_rate::.cpu.data     0.884861                       # mshr miss rate for ReadExReq accesses
system.l2cache.ReadExReq_mshr_miss_rate::total     0.884861                       # mshr miss rate for ReadExReq accesses
system.l2cache.ReadExReq_avg_mshr_miss_latency::.cpu.data 79487.348156                       # average ReadExReq mshr miss latency
system.l2cache.ReadExReq_avg_mshr_miss_latency::total 79487.348156                       # average ReadExReq mshr miss latency
system.l2cache.ReadSharedReq_hits::.cpu.inst      2944159                       # number of ReadSharedReq hits
system.l2cache.ReadSharedReq_hits::.cpu.data       441131                       # number of ReadSharedReq hits
system.l2cache.ReadSharedReq_hits::total      3385290                       # number of ReadSharedReq hits
system.l2cache.ReadSharedReq_misses::.cpu.inst        58553                       # number of ReadSharedReq misses
system.l2cache.ReadSharedReq_misses::.cpu.data       866956                       # number of ReadSharedReq misses
system.l2cache.ReadSharedReq_misses::total       925509                       # number of ReadSharedReq misses
system.l2cache.ReadSharedReq_miss_latency::.cpu.inst   5676202000                       # number of ReadSharedReq miss cycles
system.l2cache.ReadSharedReq_miss_latency::.cpu.data  88318533000                       # number of ReadSharedReq miss cycles
system.l2cache.ReadSharedReq_miss_latency::total  93994735000                       # number of ReadSharedReq miss cycles
system.l2cache.ReadSharedReq_accesses::.cpu.inst      3002712                       # number of ReadSharedReq accesses(hits+misses)
system.l2cache.ReadSharedReq_accesses::.cpu.data      1308087                       # number of ReadSharedReq accesses(hits+misses)
system.l2cache.ReadSharedReq_accesses::total      4310799                       # number of ReadSharedReq accesses(hits+misses)
system.l2cache.ReadSharedReq_miss_rate::.cpu.inst     0.019500                       # miss rate for ReadSharedReq accesses
system.l2cache.ReadSharedReq_miss_rate::.cpu.data     0.662766                       # miss rate for ReadSharedReq accesses
system.l2cache.ReadSharedReq_miss_rate::total     0.214695                       # miss rate for ReadSharedReq accesses
system.l2cache.ReadSharedReq_avg_miss_latency::.cpu.inst 96941.266886                       # average ReadSharedReq miss latency
system.l2cache.ReadSharedReq_avg_miss_latency::.cpu.data 101871.990043                       # average ReadSharedReq miss latency
system.l2cache.ReadSharedReq_avg_miss_latency::total 101560.044257                       # average ReadSharedReq miss latency
system.l2cache.ReadSharedReq_mshr_misses::.cpu.inst        58553                       # number of ReadSharedReq MSHR misses
system.l2cache.ReadSharedReq_mshr_misses::.cpu.data       866956                       # number of ReadSharedReq MSHR misses
system.l2cache.ReadSharedReq_mshr_misses::total       925509                       # number of ReadSharedReq MSHR misses
system.l2cache.ReadSharedReq_mshr_miss_latency::.cpu.inst   4505142000                       # number of ReadSharedReq MSHR miss cycles
system.l2cache.ReadSharedReq_mshr_miss_latency::.cpu.data  70979413000                       # number of ReadSharedReq MSHR miss cycles
system.l2cache.ReadSharedReq_mshr_miss_latency::total  75484555000                       # number of ReadSharedReq MSHR miss cycles
system.l2cache.ReadSharedReq_mshr_miss_rate::.cpu.inst     0.019500                       # mshr miss rate for ReadSharedReq accesses
system.l2cache.ReadSharedReq_mshr_miss_rate::.cpu.data     0.662766                       # mshr miss rate for ReadSharedReq accesses
system.l2cache.ReadSharedReq_mshr_miss_rate::total     0.214695                       # mshr miss rate for ReadSharedReq accesses
system.l2cache.ReadSharedReq_avg_mshr_miss_latency::.cpu.inst 76941.266886                       # average ReadSharedReq mshr miss latency
system.l2cache.ReadSharedReq_avg_mshr_miss_latency::.cpu.data 81871.990043                       # average ReadSharedReq mshr miss latency
system.l2cache.ReadSharedReq_avg_mshr_miss_latency::total 81560.044257                       # average ReadSharedReq mshr miss latency
system.l2cache.power_state.pwrStateResidencyTicks::UNDEFINED 2376171629000                       # Cumulative time (in ticks) in various power states
system.l2cache.replacement_policy.totalBypasses        12548                       # Total number of cache bypasses
system.l2cache.replacement_policy.effectiveBypasses         2987                       # Bypasses that correctly skipped non-reused blocks
system.l2cache.replacement_policy.ineffectiveBypasses          663                       # Bypasses that incorrectly skipped requested blocks
system.l2cache.replacement_policy.virtualEffectiveBypasses        29431                       # Virtual bypasses correctly predicting non-reused blocks
system.l2cache.replacement_policy.virtualIneffectiveBypasses        17505                       # Virtual bypasses incorrectly predicting requested blocks
system.l2cache.tags.tagsinuse             2047.815362                       # Cycle average of tags in use
system.l2cache.tags.total_refs                8760244                       # Total number of references to valid blocks.
system.l2cache.tags.sampled_refs              1271317                       # Sample count of references to valid blocks.
system.l2cache.tags.avg_refs                 6.890684                       # Average number of references to valid blocks.
system.l2cache.tags.warmup_cycle                86000                       # Cycle when the warmup percentage was hit.
system.l2cache.tags.occ_blocks::.writebacks   183.194886                       # Average occupied blocks per requestor
system.l2cache.tags.occ_blocks::.cpu.inst   270.736249                       # Average occupied blocks per requestor
system.l2cache.tags.occ_blocks::.cpu.data  1593.884227                       # Average occupied blocks per requestor
system.l2cache.tags.occ_percent::.writebacks     0.089451                       # Average percentage of cache occupancy
system.l2cache.tags.occ_percent::.cpu.inst     0.132195                       # Average percentage of cache occupancy
system.l2cache.tags.occ_percent::.cpu.data     0.778264                       # Average percentage of cache occupancy
system.l2cache.tags.occ_percent::total       0.999910                       # Average percentage of cache occupancy
system.l2cache.tags.occ_task_id_blocks::1024         2048                       # Occupied blocks per task id
system.l2cache.tags.age_task_id_blocks_1024::0           72                       # Occupied blocks per task id
system.l2cache.tags.age_task_id_blocks_1024::1          171                       # Occupied blocks per task id
system.l2cache.tags.age_task_id_blocks_1024::2          849                       # Occupied blocks per task id
system.l2cache.tags.age_task_id_blocks_1024::3          956                       # Occupied blocks per task id
system.l2cache.tags.occ_task_id_percent::1024            1                       # Percentage of cache occupancy per task id
system.l2cache.tags.tag_accesses             73496709                       # Number of tag accesses
system.l2cache.tags.data_accesses            73496709                       # Number of data accesses
system.l2cache.tags.power_state.pwrStateResidencyTicks::UNDEFINED 2376171629000                       # Cumulative time (in ticks) in various power states
system.mem_ctrl.avgPriority_.writebacks::samples    410422.00                       # Average QoS priority value for accepted requests
system.mem_ctrl.avgPriority_.cpu.inst::samples     58553.00                       # Average QoS priority value for accepted requests
system.mem_ctrl.avgPriority_.cpu.data::samples   1035203.00                       # Average QoS priority value for accepted requests
system.mem_ctrl.priorityMinLatency       0.000000018750                       # per QoS priority minimum request to response latency (s)
system.mem_ctrl.priorityMaxLatency       0.015477576500                       # per QoS priority maximum request to response latency (s)
system.mem_ctrl.numReadWriteTurnArounds         23615                       # Number of turnarounds from READ to WRITE
system.mem_ctrl.numWriteReadTurnArounds         23615                       # Number of turnarounds from WRITE to READ
system.mem_ctrl.numStayReadState              3195927                       # Number of times bus staying in READ state
system.mem_ctrl.numStayWriteState              387184                       # Number of times bus staying in WRITE state
system.mem_ctrl.readReqs                      1105957                       # Number of read requests accepted
system.mem_ctrl.writeReqs                      410427                       # Number of write requests accepted
system.mem_ctrl.readBursts                    1105957                       # Number of controller read bursts, including those serviced by the write queue
system.mem_ctrl.writeBursts                    410427                       # Number of controller write bursts, including those merged in the write queue
system.mem_ctrl.servicedByWrQ                   12201                       # Number of controller read bursts serviced by the write queue
system.mem_ctrl.mergedWrBursts                      5                       # Number of controller write bursts merged with an existing one
system.mem_ctrl.neitherReadNorWriteReqs             0                       # Number of requests that are neither read nor write
system.mem_ctrl.avgRdQLen                        1.00                       # Average read queue length when enqueuing
system.mem_ctrl.avgWrQLen                       24.66                       # Average write queue length when enqueuing
system.mem_ctrl.numRdRetry                          0                       # Number of times read queue was full causing retry
system.mem_ctrl.numWrRetry                          0                       # Number of times write queue was full causing retry
system.mem_ctrl.readPktSize::0                      0                       # Read request sizes (log2)
system.mem_ctrl.readPktSize::1                      0                       # Read request sizes (log2)
system.mem_ctrl.readPktSize::2                      0                       # Read request sizes (log2)
system.mem_ctrl.readPktSize::3                      0                       # Read request sizes (log2)
system.mem_ctrl.readPktSize::4                      0                       # Read request sizes (log2)
system.mem_ctrl.readPktSize::5                      0                       # Read request sizes (log2)
system.mem_ctrl.readPktSize::6                1105957                       # Read request sizes (log2)
system.mem_ctrl.writePktSize::0                     0                       # Write request sizes (log2)
system.mem_ctrl.writePktSize::1                     0                       # Write request sizes (log2)
system.mem_ctrl.writePktSize::2                     0                       # Write request sizes (log2)
system.mem_ctrl.writePktSize::3                     0                       # Write request sizes (log2)
system.mem_ctrl.writePktSize::4                     0                       # Write request sizes (log2)
system.mem_ctrl.writePktSize::5                     0                       # Write request sizes (log2)
system.mem_ctrl.writePktSize::6                410427                       # Write request sizes (log2)
system.mem_ctrl.rdQLenPdf::0                  1093756                       # What read queue length does an incoming req see
system.mem_ctrl.rdQLenPdf::1                        0                       # What read queue length does an incoming req see
system.mem_ctrl.rdQLenPdf::2                        0                       # What read queue length does an incoming req see
system.mem_ctrl.rdQLenPdf::3                        0                       # What read queue length does an incoming req see
system.mem_ctrl.rdQLenPdf::4                        0                       # What read queue length does an incoming req see
system.mem_ctrl.rdQLenPdf::5                        0                       # What read queue length does an incoming req see
system.mem_ctrl.rdQLenPdf::6                        0                       # What read queue length does an incoming req see
system.mem_ctrl.rdQLenPdf::7                        0                       # What read queue length does an incoming req see
system.mem_ctrl.rdQLenPdf::8                        0                       # What read queue length does an incoming req see
system.mem_ctrl.rdQLenPdf::9                        0                       # What read queue length does an incoming req see
system.mem_ctrl.rdQLenPdf::10                       0                       # What read queue length does an incoming req see
system.mem_ctrl.rdQLenPdf::11                       0                       # What read queue length does an incoming req see
system.mem_ctrl.rdQLenPdf::12                       0                       # What read queue length does an incoming req see
system.mem_ctrl.rdQLenPdf::13                       0                       # What read queue length does an incoming req see
system.mem_ctrl.rdQLenPdf::14                       0                       # What read queue length does an incoming req see
system.mem_ctrl.rdQLenPdf::15                       0                       # What read queue length does an incoming req see
system.mem_ctrl.rdQLenPdf::16                       0                       # What read queue length does an incoming req see
system.mem_ctrl.rdQLenPdf::17                       0                       # What read queue length does an incoming req see
system.mem_ctrl.rdQLenPdf::18                       0                       # What read queue length does an incoming req see
system.mem_ctrl.rdQLenPdf::19                       0                       # What read queue length does an incoming req see
system.mem_ctrl.rdQLenPdf::20                       0                       # What read queue length does an incoming req see
system.mem_ctrl.rdQLenPdf::21                       0                       # What read queue length does an incoming req see
system.mem_ctrl.rdQLenPdf::22                       0                       # What read queue length does an incoming req see
system.mem_ctrl.rdQLenPdf::23                       0                       # What read queue length does an incoming req see
system.mem_ctrl.rdQLenPdf::24                       0                       # What read queue length does an incoming req see
system.mem_ctrl.rdQLenPdf::25                       0                       # What read queue length does an incoming req see
system.mem_ctrl.rdQLenPdf::26                       0                       # What read queue length does an incoming req see
system.mem_ctrl.rdQLenPdf::27                       0                       # What read queue length does an incoming req see
system.mem_ctrl.rdQLenPdf::28                       0                       # What read queue length does an incoming req see
system.mem_ctrl.rdQLenPdf::29                       0                       # What read queue length does an incoming req see
system.mem_ctrl.rdQLenPdf::30                       0                       # What read queue length does an incoming req see
system.mem_ctrl.rdQLenPdf::31                       0                       # What read queue length does an incoming req see
system.mem_ctrl.wrQLenPdf::0                        1                       # What write queue length does an incoming req see
system.mem_ctrl.wrQLenPdf::1                        1                       # What write queue length does an incoming req see
system.mem_ctrl.wrQLenPdf::2                        1                       # What write queue length does an incoming req see
system.mem_ctrl.wrQLenPdf::3                        1                       # What write queue length does an incoming req see
system.mem_ctrl.wrQLenPdf::4                        1                       # What write queue length does an incoming req see
system.mem_ctrl.wrQLenPdf::5                        1                       # What write queue length does an incoming req see
system.mem_ctrl.wrQLenPdf::6                        1                       # What write queue length does an incoming req see
system.mem_ctrl.wrQLenPdf::7                        1                       # What write queue length does an incoming req see
system.mem_ctrl.wrQLenPdf::8                        1                       # What write queue length does an incoming req see
system.mem_ctrl.wrQLenPdf::9                        1                       # What write queue length does an incoming req see
system.mem_ctrl.wrQLenPdf::10                       1                       # What write queue length does an incoming req see
system.mem_ctrl.wrQLenPdf::11                       1                       # What write queue length does an incoming req see
system.mem_ctrl.wrQLenPdf::12                       1                       # What write queue length does an incoming req see
system.mem_ctrl.wrQLenPdf::13                       1                       # What write queue length does an incoming req see
system.mem_ctrl.wrQLenPdf::14                       1                       # What write queue length does an incoming req see
system.mem_ctrl.wrQLenPdf::15                   15415                       # What write queue length does an incoming req see
system.mem_ctrl.wrQLenPdf::16                   16303                       # What write queue length does an incoming req see
system.mem_ctrl.wrQLenPdf::17                   23226                       # What write queue length does an incoming req see
system.mem_ctrl.wrQLenPdf::18                   23968                       # What write queue length does an incoming req see
system.mem_ctrl.wrQLenPdf::19                   23830                       # What write queue length does an incoming req see
system.mem_ctrl.wrQLenPdf::20                   23663                       # What write queue length does an incoming req see
system.mem_ctrl.wrQLenPdf::21                   24159                       # What write queue length does an incoming req see
system.mem_ctrl.wrQLenPdf::22                   23655                       # What write queue length does an incoming req see
system.mem_ctrl.wrQLenPdf::23                   23625                       # What write queue length does an incoming req see
system.mem_ctrl.wrQLenPdf::24                   23616                       # What write queue length does an incoming req see
system.mem_ctrl.wrQLenPdf::25                   23621                       # What write queue length does an incoming req see
system.mem_ctrl.wrQLenPdf::26                   23615                       # What write queue length does an incoming req see
system.mem_ctrl.wrQLenPdf::27                   23619                       # What write queue length does an incoming req see
system.mem_ctrl.wrQLenPdf::28                   23616                       # What write queue length does an incoming req see
system.mem_ctrl.wrQLenPdf::29                   23615                       # What write queue length does an incoming req see
system.mem_ctrl.wrQLenPdf::30                   23615                       # What write queue length does an incoming req see
system.mem_ctrl.wrQLenPdf::31                   23615                       # What write queue length does an incoming req see
system.mem_ctrl.wrQLenPdf::32                   23615                       # What write queue length does an incoming req see
system.mem_ctrl.wrQLenPdf::33                      16                       # What write queue length does an incoming req see
system.mem_ctrl.wrQLenPdf::34                       0                       # What write queue length does an incoming req see
system.mem_ctrl.wrQLenPdf::35                       0                       # What write queue length does an incoming req see
system.mem_ctrl.wrQLenPdf::36                       0                       # What write queue length does an incoming req see
system.mem_ctrl.wrQLenPdf::37                       0                       # What write queue length does an incoming req see
system.mem_ctrl.wrQLenPdf::38                       0                       # What write queue length does an incoming req see
system.mem_ctrl.wrQLenPdf::39                       0                       # What write queue length does an incoming req see
system.mem_ctrl.wrQLenPdf::40                       0                       # What write queue length does an incoming req see
system.mem_ctrl.wrQLenPdf::41                       0                       # What write queue length does an incoming req see
system.mem_ctrl.wrQLenPdf::42                       0                       # What write queue length does an incoming req see
system.mem_ctrl.wrQLenPdf::43                       0                       # What write queue length does an incoming req see
system.mem_ctrl.wrQLenPdf::44                       0                       # What write queue length does an incoming req see
system.mem_ctrl.wrQLenPdf::45                       0                       # What write queue length does an incoming req see
system.mem_ctrl.wrQLenPdf::46                       0                       # What write queue length does an incoming req see
system.mem_ctrl.wrQLenPdf::47                       0                       # What write queue length does an incoming req see
system.mem_ctrl.wrQLenPdf::48                       0                       # What write queue length does an incoming req see
system.mem_ctrl.wrQLenPdf::49                       0                       # What write queue length does an incoming req see
system.mem_ctrl.wrQLenPdf::50                       0                       # What write queue length does an incoming req see
system.mem_ctrl.wrQLenPdf::51                       0                       # What write queue length does an incoming req see
system.mem_ctrl.wrQLenPdf::52                       0                       # What write queue length does an incoming req see
system.mem_ctrl.wrQLenPdf::53                       0                       # What write queue length does an incoming req see
system.mem_ctrl.wrQLenPdf::54                       0                       # What write queue length does an incoming req see
system.mem_ctrl.wrQLenPdf::55                       0                       # What write queue length does an incoming req see
system.mem_ctrl.wrQLenPdf::56                       0                       # What write queue length does an incoming req see
system.mem_ctrl.wrQLenPdf::57                       0                       # What write queue length does an incoming req see
system.mem_ctrl.wrQLenPdf::58                       0                       # What write queue length does an incoming req see
system.mem_ctrl.wrQLenPdf::59                       0                       # What write queue length does an incoming req see
system.mem_ctrl.wrQLenPdf::60                       0                       # What write queue length does an incoming req see
system.mem_ctrl.wrQLenPdf::61                       0                       # What write queue length does an incoming req see
system.mem_ctrl.wrQLenPdf::62                       0                       # What write queue length does an incoming req see
system.mem_ctrl.wrQLenPdf::63                       0                       # What write queue length does an incoming req see
system.mem_ctrl.rdPerTurnAround::samples        23615                       # Reads before turning the bus around for writes
system.mem_ctrl.rdPerTurnAround::mean       46.315943                       # Reads before turning the bus around for writes
system.mem_ctrl.rdPerTurnAround::gmean      37.310167                       # Reads before turning the bus around for writes
system.mem_ctrl.rdPerTurnAround::stdev      57.449042                       # Reads before turning the bus around for writes
system.mem_ctrl.rdPerTurnAround::0-127          23164     98.09%     98.09% # Reads before turning the bus around for writes
system.mem_ctrl.rdPerTurnAround::128-255          380      1.61%     99.70% # Reads before turning the bus around for writes
system.mem_ctrl.rdPerTurnAround::256-383            7      0.03%     99.73% # Reads before turning the bus around for writes
system.mem_ctrl.rdPerTurnAround::512-639            2      0.01%     99.74% # Reads before turning the bus around for writes
system.mem_ctrl.rdPerTurnAround::640-767            4      0.02%     99.75% # Reads before turning the bus around for writes
system.mem_ctrl.rdPerTurnAround::768-895            5      0.02%     99.78% # Reads before turning the bus around for writes
system.mem_ctrl.rdPerTurnAround::896-1023           44      0.19%     99.96% # Reads before turning the bus around for writes
system.mem_ctrl.rdPerTurnAround::1024-1151            8      0.03%    100.00% # Reads before turning the bus around for writes
system.mem_ctrl.rdPerTurnAround::2688-2815            1      0.00%    100.00% # Reads before turning the bus around for writes
system.mem_ctrl.rdPerTurnAround::total          23615                       # Reads before turning the bus around for writes
system.mem_ctrl.wrPerTurnAround::samples        23615                       # Writes before turning the bus around for reads
system.mem_ctrl.wrPerTurnAround::mean       17.379081                       # Writes before turning the bus around for reads
system.mem_ctrl.wrPerTurnAround::gmean      17.352270                       # Writes before turning the bus around for reads
system.mem_ctrl.wrPerTurnAround::stdev       0.953889                       # Writes before turning the bus around for reads
system.mem_ctrl.wrPerTurnAround::16              7262     30.75%     30.75% # Writes before turning the bus around for reads
system.mem_ctrl.wrPerTurnAround::17               834      3.53%     34.28% # Writes before turning the bus around for reads
system.mem_ctrl.wrPerTurnAround::18             14831     62.80%     97.09% # Writes before turning the bus around for reads
system.mem_ctrl.wrPerTurnAround::19               681      2.88%     99.97% # Writes before turning the bus around for reads
system.mem_ctrl.wrPerTurnAround::20                 7      0.03%    100.00% # Writes before turning the bus around for reads
system.mem_ctrl.wrPerTurnAround::total          23615                       # Writes before turning the bus around for reads
system.mem_ctrl.bytesReadWrQ                   780864                       # Total number of bytes read from write queue
system.mem_ctrl.bytesReadSys                 70781248                       # Total read bytes from the system interface side
system.mem_ctrl.bytesWrittenSys              26267328                       # Total written bytes from the system interface side
[...]
system.mem_ctrl.requestorReadRate::.cpu.data 27882241.834476511925                       # Per-requestor bytes read from memory rate (Bytes/sec)
system.mem_ctrl.requestorWriteRate::.writebacks 11053935.532028019428                       # Per-requestor bytes write to memory rate (Bytes/sec)
system.mem_ctrl.requestorReadAccesses::.cpu.inst        58553                       # Per-requestor read serviced memory accesses
system.mem_ctrl.requestorReadAccesses::.cpu.data      1047404                       # Per-requestor read serviced memory accesses
system.mem_ctrl.requestorWriteAccesses::.writebacks       410427                       # Per-requestor write serviced memory accesses
system.mem_ctrl.requestorReadTotalLat::.cpu.inst   1501482250                       # Per-requestor read total memory access latency
system.mem_ctrl.requestorReadTotalLat::.cpu.data  31626420500                       # Per-requestor read total memory access latency
system.mem_ctrl.requestorWriteTotalLat::.writebacks 56102240996750                       # Per-requestor write total memory access latency
system.mem_ctrl.requestorReadAvgLat::.cpu.inst     25643.13                       # Per-requestor read average memory access latency
system.mem_ctrl.requestorReadAvgLat::.cpu.data     30195.05                       # Per-requestor read average memory access latency
system.mem_ctrl.requestorWriteAvgLat::.writebacks 136692374.03                       # Per-requestor write average memory access latency
system.mem_ctrl.dram.bytes_read::.cpu.inst      3747392                       # Number of bytes read from this memory
system.mem_ctrl.dram.bytes_read::.cpu.data     67033856                       # Number of bytes read from this memory
system.mem_ctrl.dram.bytes_read::total       70781248                       # Number of bytes read from this memory
system.mem_ctrl.dram.bytes_inst_read::.cpu.inst      3747392                       # Number of instructions bytes read from this memory
system.mem_ctrl.dram.bytes_inst_read::total      3747392                       # Number of instructions bytes read from this memory
system.mem_ctrl.dram.bytes_written::.writebacks     26267328                       # Number of bytes written to this memory
system.mem_ctrl.dram.bytes_written::total     26267328                       # Number of bytes written to this memory
system.mem_ctrl.dram.num_reads::.cpu.inst        58553                       # Number of read requests responded to by this memory
system.mem_ctrl.dram.num_reads::.cpu.data      1047404                       # Number of read requests responded to by this memory
system.mem_ctrl.dram.num_reads::total         1105957                       # Number of read requests responded to by this memory
system.mem_ctrl.dram.num_writes::.writebacks       410427                       # Number of write requests responded to by this memory
system.mem_ctrl.dram.num_writes::total         410427                       # Number of write requests responded to by this memory
system.mem_ctrl.dram.bw_read::.cpu.inst       1577071                       # Total read bandwidth from this memory (bytes/s)
system.mem_ctrl.dram.bw_read::.cpu.data      28210865                       # Total read bandwidth from this memory (bytes/s)
system.mem_ctrl.dram.bw_read::total          29787936                       # Total read bandwidth from this memory (bytes/s)
system.mem_ctrl.dram.bw_inst_read::.cpu.inst      1577071                       # Instruction read bandwidth from this memory (bytes/s)
system.mem_ctrl.dram.bw_inst_read::total      1577071                       # Instruction read bandwidth from this memory (bytes/s)
system.mem_ctrl.dram.bw_write::.writebacks     11054474                       # Write bandwidth from this memory (bytes/s)
system.mem_ctrl.dram.bw_write::total         11054474                       # Write bandwidth from this memory (bytes/s)
system.mem_ctrl.dram.bw_total::.writebacks     11054474                       # Total bandwidth to/from this memory (bytes/s)
system.mem_ctrl.dram.bw_total::.cpu.inst      1577071                       # Total bandwidth to/from this memory (bytes/s)
system.mem_ctrl.dram.bw_total::.cpu.data     28210865                       # Total bandwidth to/from this memory (bytes/s)
system.mem_ctrl.dram.bw_total::total         40842410                       # Total bandwidth to/from this memory (bytes/s)
system.mem_ctrl.dram.readBursts               1093756                       # Number of DRAM read bursts
system.mem_ctrl.dram.writeBursts               410407                       # Number of DRAM write bursts
system.mem_ctrl.dram.perBankRdBursts::0         63688                       # Per bank write bursts
system.mem_ctrl.dram.perBankRdBursts::1         84930                       # Per bank write bursts
system.mem_ctrl.dram.perBankRdBursts::2         55535                       # Per bank write bursts
system.mem_ctrl.dram.perBankRdBursts::3         77814                       # Per bank write bursts
system.mem_ctrl.dram.perBankRdBursts::4         60346                       # Per bank write bursts
system.mem_ctrl.dram.perBankRdBursts::5         75587                       # Per bank write bursts
system.mem_ctrl.dram.perBankRdBursts::6         51186                       # Per bank write bursts
system.mem_ctrl.dram.perBankRdBursts::7         65426                       # Per bank write bursts
system.mem_ctrl.dram.perBankRdBursts::8         52134                       # Per bank write bursts
system.mem_ctrl.dram.perBankRdBursts::9         60901                       # Per bank write bursts
system.mem_ctrl.dram.perBankRdBursts::10        49710                       # Per bank write bursts
system.mem_ctrl.dram.perBankRdBursts::11        82755                       # Per bank write bursts
system.mem_ctrl.dram.perBankRdBursts::12        71016                       # Per bank write bursts
system.mem_ctrl.dram.perBankRdBursts::13        82968                       # Per bank write bursts
system.mem_ctrl.dram.perBankRdBursts::14        65953                       # Per bank write bursts
system.mem_ctrl.dram.perBankRdBursts::15        93807                       # Per bank write bursts
system.mem_ctrl.dram.perBankWrBursts::0         16315                       # Per bank write bursts
system.mem_ctrl.dram.perBankWrBursts::1         37752                       # Per bank write bursts
system.mem_ctrl.dram.perBankWrBursts::2         26664                       # Per bank write bursts
system.mem_ctrl.dram.perBankWrBursts::3         37146                       # Per bank write bursts
system.mem_ctrl.dram.perBankWrBursts::4         34463                       # Per bank write bursts
system.mem_ctrl.dram.perBankWrBursts::5         50397                       # Per bank write bursts
system.mem_ctrl.dram.perBankWrBursts::6         31480                       # Per bank write bursts
system.mem_ctrl.dram.perBankWrBursts::7         36288                       # Per bank write bursts
system.mem_ctrl.dram.perBankWrBursts::8         31395                       # Per bank write bursts
system.mem_ctrl.dram.perBankWrBursts::9         32355                       # Per bank write bursts
system.mem_ctrl.dram.perBankWrBursts::10        12734                       # Per bank write bursts
system.mem_ctrl.dram.perBankWrBursts::11        10696                       # Per bank write bursts
system.mem_ctrl.dram.perBankWrBursts::12        13529                       # Per bank write bursts
system.mem_ctrl.dram.perBankWrBursts::13        12897                       # Per bank write bursts
system.mem_ctrl.dram.perBankWrBursts::14        12789                       # Per bank write bursts
system.mem_ctrl.dram.perBankWrBursts::15        13507                       # Per bank write bursts
system.mem_ctrl.dram.totQLat              12619977750                       # Total ticks spent queuing
system.mem_ctrl.dram.totBusLat             5468780000                       # Total ticks spent in databus transfers
system.mem_ctrl.dram.totMemAccLat         33127902750                       # Total ticks spent from burst creation until serviced by the DRAM
system.mem_ctrl.dram.avgQLat                 11538.20                       # Average queueing delay per DRAM burst
system.mem_ctrl.dram.avgBusLat                5000.00                       # Average bus latency per DRAM burst
system.mem_ctrl.dram.avgMemAccLat            30288.20                       # Average memory access latency per DRAM burst
system.mem_ctrl.dram.readRowHits               642263                       # Number of row buffer hits during reads
system.mem_ctrl.dram.writeRowHits              339582                       # Number of row buffer hits during writes
system.mem_ctrl.dram.readRowHitRate             58.72                       # Row buffer hit rate for reads
system.mem_ctrl.dram.writeRowHitRate            82.74                       # Row buffer hit rate for writes
system.mem_ctrl.dram.bytesPerActivate::samples       522313                       # Bytes accessed per row activation
system.mem_ctrl.dram.bytesPerActivate::mean   184.305120                       # Bytes accessed per row activation
system.mem_ctrl.dram.bytesPerActivate::gmean   122.530854                       # Bytes accessed per row activation
system.mem_ctrl.dram.bytesPerActivate::stdev   212.970940                       # Bytes accessed per row activation
system.mem_ctrl.dram.bytesPerActivate::0-127       270645     51.82%     51.82% # Bytes accessed per row activation
system.mem_ctrl.dram.bytesPerActivate::128-255       127729     24.45%     76.27% # Bytes accessed per row activation
system.mem_ctrl.dram.bytesPerActivate::256-383        53705     10.28%     86.55% # Bytes accessed per row activation
system.mem_ctrl.dram.bytesPerActivate::384-511        28536      5.46%     92.02% # Bytes accessed per row activation
system.mem_ctrl.dram.bytesPerActivate::512-639        10046      1.92%     93.94% # Bytes accessed per row activation
system.mem_ctrl.dram.bytesPerActivate::640-767         7134      1.37%     95.31% # Bytes accessed per row activation
system.mem_ctrl.dram.bytesPerActivate::768-895         6207      1.19%     96.49% # Bytes accessed per row activation
system.mem_ctrl.dram.bytesPerActivate::896-1023         5437      1.04%     97.54% # Bytes accessed per row activation
system.mem_ctrl.dram.bytesPerActivate::1024-1151        12874      2.46%    100.00% # Bytes accessed per row activation
system.mem_ctrl.dram.bytesPerActivate::total       522313                       # Bytes accessed per row activation
system.mem_ctrl.dram.bytesRead               70000384                       # Total number of bytes read from DRAM
system.mem_ctrl.dram.bytesWritten            26266048                       # Total number of bytes written to DRAM
system.mem_ctrl.dram.avgRdBW                29.459313                       # Average DRAM read bandwidth in MiBytes/s
system.mem_ctrl.dram.avgWrBW                11.053936                       # Average DRAM write bandwidth in MiBytes/s
system.mem_ctrl.dram.peakBW                  12800.00                       # Theoretical peak bandwidth in MiByte/s
system.mem_ctrl.dram.busUtil                     0.32                       # Data bus utilization in percentage
system.mem_ctrl.dram.busUtilRead                 0.23                       # Data bus utilization in percentage for reads
system.mem_ctrl.dram.busUtilWrite                0.09                       # Data bus utilization in percentage for writes
system.mem_ctrl.dram.pageHitRate                65.28                       # Row buffer hit rate, read and write combined
system.mem_ctrl.dram.power_state.pwrStateResidencyTicks::UNDEFINED 2376171629000                       # Cumulative time (in ticks) in various power states
system.mem_ctrl.dram.rank0.actEnergy       1678278420                       # Energy for activate commands per rank (pJ)
system.mem_ctrl.dram.rank0.preEnergy        892010955                       # Energy for precharge commands per rank (pJ)
system.mem_ctrl.dram.rank0.readEnergy      3816415680                       # Energy for read commands per rank (pJ)
system.mem_ctrl.dram.rank0.writeEnergy     1412036100                       # Energy for write commands per rank (pJ)
system.mem_ctrl.dram.rank0.refreshEnergy 187572762000.000031                       # Energy for refresh commands per rank (pJ)
system.mem_ctrl.dram.rank0.actBackEnergy 272622420930                       # Energy for active background per rank (pJ)
system.mem_ctrl.dram.rank0.preBackEnergy 682873130400                       # Energy for precharge background per rank (pJ)
system.mem_ctrl.dram.rank0.actPowerDownEnergy            0                       # Energy for active power-down per rank (pJ)
system.mem_ctrl.dram.rank0.prePowerDownEnergy            0                       # Energy for precharge power-down per rank (pJ)
system.mem_ctrl.dram.rank0.selfRefreshEnergy            0                       # Energy for self refresh per rank (pJ)
system.mem_ctrl.dram.rank0.totalEnergy   1150867054485                       # Total energy per rank (pJ)
system.mem_ctrl.dram.rank0.averagePower    484.336670                       # Core power per rank (mW)
system.mem_ctrl.dram.rank0.totalIdleTime            0                       # Total Idle time Per DRAM Rank
system.mem_ctrl.dram.rank0.pwrStateTime::IDLE 1772675020250                       # Time in different power states
system.mem_ctrl.dram.rank0.pwrStateTime::REF  79345500000                       # Time in different power states
system.mem_ctrl.dram.rank0.pwrStateTime::SREF            0                       # Time in different power states
system.mem_ctrl.dram.rank0.pwrStateTime::PRE_PDN            0                       # Time in different power states
system.mem_ctrl.dram.rank0.pwrStateTime::ACT 524151108750                       # Time in different power states
system.mem_ctrl.dram.rank0.pwrStateTime::ACT_PDN            0                       # Time in different power states
system.mem_ctrl.dram.rank1.actEnergy       2051072100                       # Energy for activate commands per rank (pJ)
system.mem_ctrl.dram.rank1.preEnergy       1090166880                       # Energy for precharge commands per rank (pJ)
system.mem_ctrl.dram.rank1.readEnergy      3993002160                       # Energy for read commands per rank (pJ)
system.mem_ctrl.dram.rank1.writeEnergy      730288440                       # Energy for write commands per rank (pJ)
system.mem_ctrl.dram.rank1.refreshEnergy 187572762000.000031                       # Energy for refresh commands per rank (pJ)
system.mem_ctrl.dram.rank1.actBackEnergy 233108556600                       # Energy for active background per rank (pJ)
system.mem_ctrl.dram.rank1.preBackEnergy 716147963520                       # Energy for precharge background per rank (pJ)
system.mem_ctrl.dram.rank1.actPowerDownEnergy            0                       # Energy for active power-down per rank (pJ)
system.mem_ctrl.dram.rank1.prePowerDownEnergy            0                       # Energy for precharge power-down per rank (pJ)
system.mem_ctrl.dram.rank1.selfRefreshEnergy            0                       # Energy for self refresh per rank (pJ)
system.mem_ctrl.dram.rank1.totalEnergy   1144693811700                       # Total energy per rank (pJ)
system.mem_ctrl.dram.rank1.averagePower    481.738692                       # Core power per rank (mW)
system.mem_ctrl.dram.rank1.totalIdleTime            0                       # Total Idle time Per DRAM Rank
system.mem_ctrl.dram.rank1.pwrStateTime::IDLE 1859589607750                       # Time in different power states
system.mem_ctrl.dram.rank1.pwrStateTime::REF  79345500000                       # Time in different power states
system.mem_ctrl.dram.rank1.pwrStateTime::SREF            0                       # Time in different power states
system.mem_ctrl.dram.rank1.pwrStateTime::PRE_PDN            0                       # Time in different power states
system.mem_ctrl.dram.rank1.pwrStateTime::ACT 437236521250                       # Time in different power states
system.mem_ctrl.dram.rank1.pwrStateTime::ACT_PDN            0                       # Time in different power states
system.mem_ctrl.power_state.pwrStateResidencyTicks::UNDEFINED 2376171629000                       # Cumulative time (in ticks) in various power states
system.membus.trans_dist::ReadResp             925509                       # Transaction distribution
system.membus.trans_dist::WritebackDirty       410427                       # Transaction distribution
system.membus.trans_dist::CleanEvict           693101                       # Transaction distribution
system.membus.trans_dist::ReadExReq            180448                       # Transaction distribution
system.membus.trans_dist::ReadExResp           180448                       # Transaction distribution
system.membus.trans_dist::ReadSharedReq        925509                       # Transaction distribution
system.membus.pkt_count_system.l2cache.mem_side_port::system.mem_ctrl.port      3315442                       # Packet count per connected requestor and responder (bytes)
system.membus.pkt_count_system.l2cache.mem_side_port::total      3315442                       # Packet count per connected requestor and responder (bytes)
system.membus.pkt_count::total                3315442                       # Packet count per connected requestor and responder (bytes)
system.membus.pkt_size_system.l2cache.mem_side_port::system.mem_ctrl.port     97048576                       # Cumulative packet size per connected requestor and responder (bytes)
system.membus.pkt_size_system.l2cache.mem_side_port::total     97048576                       # Cumulative packet size per connected requestor and responder (bytes)
system.membus.pkt_size::total                97048576                       # Cumulative packet size per connected requestor and responder (bytes)
system.membus.snoops                                0                       # Total snoops (count)
system.membus.snoopTraffic                          0                       # Total snoop traffic (bytes)
system.membus.snoop_fanout::samples           1105957                       # Request fanout histogram
system.membus.snoop_fanout::mean                    0                       # Request fanout histogram
system.membus.snoop_fanout::stdev                   0                       # Request fanout histogram
system.membus.snoop_fanout::underflows              0      0.00%      0.00% # Request fanout histogram
system.membus.snoop_fanout::0                 1105957    100.00%    100.00% # Request fanout histogram
system.membus.snoop_fanout::1                       0      0.00%    100.00% # Request fanout histogram
system.membus.snoop_fanout::overflows               0      0.00%    100.00% # Request fanout histogram
system.membus.snoop_fanout::min_value               0                       # Request fanout histogram
system.membus.snoop_fanout::max_value               0                       # Request fanout histogram
system.membus.snoop_fanout::total             1105957                       # Request fanout histogram
system.membus.power_state.pwrStateResidencyTicks::UNDEFINED 2376171629000                       # Cumulative time (in ticks) in various power states
system.membus.reqLayer2.occupancy          3851193000                       # Layer occupancy (ticks)
system.membus.reqLayer2.utilization               0.2                       # Layer utilization (%)
system.membus.respLayer0.occupancy         5930397250                       # Layer occupancy (ticks)
system.membus.respLayer0.utilization              0.2                       # Layer utilization (%)

---------- End Simulation Statistics   ----------
