
---------- Begin Simulation Statistics ----------
final_tick                               2616359799000                       # Number of ticks from beginning of simulation (restored from checkpoints and never reset)
host_inst_rate                                 449857                       # Simulator instruction rate (inst/s)
host_mem_usage                                 667996                       # Number of bytes of host memory used
host_op_rate                                   764694                       # Simulator op (including micro ops) rate (op/s)
host_seconds                                  1279.19                       # Real time elapsed on the host
host_tick_rate                             2045319834                       # Simulator tick rate (ticks/s)
sim_freq                                 1000000000000                       # Frequency of simulated ticks
sim_insts                                   575454649                       # Number of instructions simulated
sim_ops                                     978190907                       # Number of ops (including micro ops) simulated
sim_seconds                                  2.616360                       # Number of seconds simulated
sim_ticks                                2616359799000                       # Number of ticks simulated
system.cpu.Branches                          31851447                       # Number of branches fetched
system.cpu.committedInsts                   575454649                       # Number of instructions committed
system.cpu.committedOps                     978190907                       # Number of ops (including micro ops) committed
system.cpu.idle_fraction                     0.000000                       # Percentage of idle cycles
system.cpu.not_idle_fraction                 1.000000                       # Percentage of non-idle cycles
system.cpu.numCycles                       2616359799                       # number of cpu cycles simulated
system.cpu.numWorkItemsCompleted                    0                       # number of work items this cpu completed
system.cpu.numWorkItemsStarted                      0                       # number of work items this cpu started
system.cpu.num_busy_cycles               2616359798.999000                       # Number of busy cycles
system.cpu.num_cc_register_reads            155141532                       # number of times the CC registers were read
system.cpu.num_cc_register_writes           162654604                       # number of times the CC registers were written
system.cpu.num_conditional_control_insts     29705124                       # number of instructions that are conditional controls
system.cpu.num_fp_alu_accesses              723696043                       # Number of float alu accesses
system.cpu.num_fp_insts                     723696043                       # number of float instructions
system.cpu.num_fp_register_reads           1022020909                       # number of times the floating registers were read
system.cpu.num_fp_register_writes           620017342                       # number of times the floating registers were written
system.cpu.num_func_calls                     1608984                       # number of times a function call or return occured
system.cpu.num_idle_cycles                   0.001000                       # Number of idle cycles
system.cpu.num_int_alu_accesses             539304662                       # Number of integer alu accesses
system.cpu.num_int_insts                    539304662                       # number of integer instructions
system.cpu.num_int_register_reads          1243037552                       # number of times the integer registers were read
system.cpu.num_int_register_writes          221683325                       # number of times the integer registers were written
system.cpu.num_load_insts                   187986144                       # Number of load instructions
system.cpu.num_mem_refs                     292192196                       # number of memory refs
system.cpu.num_store_insts                  104206052                       # Number of store instructions
system.cpu.num_vec_alu_accesses                     0                       # Number of vector alu accesses
system.cpu.num_vec_insts                            0                       # number of vector instructions
system.cpu.num_vec_register_reads                   0                       # number of times the vector registers were read
system.cpu.num_vec_register_writes                  0                       # number of times the vector registers were written
system.cpu.op_class::No_OpClass               1700260      0.17%      0.17% # Class of executed instruction
system.cpu.op_class::IntAlu                 388213690     39.69%     39.86% # Class of executed instruction
system.cpu.op_class::IntMult                  1511480      0.15%     40.02% # Class of executed instruction
system.cpu.op_class::IntDiv                    141309      0.01%     40.03% # Class of executed instruction
system.cpu.op_class::FloatAdd                81130357      8.29%     48.32% # Class of executed instruction
system.cpu.op_class::FloatCmp                       0      0.00%     48.32% # Class of executed instruction
system.cpu.op_class::FloatCvt                       0      0.00%     48.32% # Class of executed instruction
system.cpu.op_class::FloatMult                      0      0.00%     48.32% # Class of executed instruction
system.cpu.op_class::FloatMultAcc                   0      0.00%     48.32% # Class of executed instruction
system.cpu.op_class::FloatDiv                       0      0.00%     48.32% # Class of executed instruction
system.cpu.op_class::FloatMisc                      0      0.00%     48.32% # Class of executed instruction
system.cpu.op_class::FloatSqrt                      0      0.00%     48.32% # Class of executed instruction
system.cpu.op_class::SimdAdd                   491562      0.05%     48.37% # Class of executed instruction
system.cpu.op_class::SimdAddAcc                     0      0.00%     48.37% # Class of executed instruction
system.cpu.op_class::SimdAlu                  2949683      0.30%     48.68% # Class of executed instruction
system.cpu.op_class::SimdCmp                       18      0.00%     48.68% # Class of executed instruction
system.cpu.op_class::SimdCvt                      816      0.00%     48.68% # Class of executed instruction
system.cpu.op_class::SimdMisc                 2637173      0.27%     48.95% # Class of executed instruction
system.cpu.op_class::SimdMult                  245760      0.03%     48.97% # Class of executed instruction
system.cpu.op_class::SimdMultAcc                    0      0.00%     48.97% # Class of executed instruction
system.cpu.op_class::SimdShift                 368643      0.04%     49.01% # Class of executed instruction
system.cpu.op_class::SimdShiftAcc                   0      0.00%     49.01% # Class of executed instruction
system.cpu.op_class::SimdDiv                        0      0.00%     49.01% # Class of executed instruction
system.cpu.op_class::SimdSqrt                       0      0.00%     49.01% # Class of executed instruction
system.cpu.op_class::SimdFloatAdd           119030165     12.17%     61.18% # Class of executed instruction
system.cpu.op_class::SimdFloatAlu                   0      0.00%     61.18% # Class of executed instruction
system.cpu.op_class::SimdFloatCmp                   0      0.00%     61.18% # Class of executed instruction
system.cpu.op_class::SimdFloatCvt             1852644      0.19%     61.37% # Class of executed instruction
system.cpu.op_class::SimdFloatDiv                  70      0.00%     61.37% # Class of executed instruction
system.cpu.op_class::SimdFloatMisc                  0      0.00%     61.37% # Class of executed instruction
system.cpu.op_class::SimdFloatMult           85725170      8.76%     70.13% # Class of executed instruction
system.cpu.op_class::SimdFloatMultAcc               0      0.00%     70.13% # Class of executed instruction
system.cpu.op_class::SimdFloatSqrt                  6      0.00%     70.13% # Class of executed instruction
system.cpu.op_class::SimdReduceAdd                  0      0.00%     70.13% # Class of executed instruction
system.cpu.op_class::SimdReduceAlu                  0      0.00%     70.13% # Class of executed instruction
system.cpu.op_class::SimdReduceCmp                  0      0.00%     70.13% # Class of executed instruction
system.cpu.op_class::SimdFloatReduceAdd             0      0.00%     70.13% # Class of executed instruction
system.cpu.op_class::SimdFloatReduceCmp             0      0.00%     70.13% # Class of executed instruction
system.cpu.op_class::SimdAes                        0      0.00%     70.13% # Class of executed instruction
system.cpu.op_class::SimdAesMix                     0      0.00%     70.13% # Class of executed instruction
system.cpu.op_class::SimdSha1Hash                   0      0.00%     70.13% # Class of executed instruction
system.cpu.op_class::SimdSha1Hash2                  0      0.00%     70.13% # Class of executed instruction
system.cpu.op_class::SimdSha256Hash                 0      0.00%     70.13% # Class of executed instruction
system.cpu.op_class::SimdSha256Hash2                0      0.00%     70.13% # Class of executed instruction
system.cpu.op_class::SimdShaSigma2                  0      0.00%     70.13% # Class of executed instruction
system.cpu.op_class::SimdShaSigma3                  0      0.00%     70.13% # Class of executed instruction
system.cpu.op_class::SimdPredAlu                    0      0.00%     70.13% # Class of executed instruction
system.cpu.op_class::MemRead                  5927083      0.61%     70.74% # Class of executed instruction
system.cpu.op_class::MemWrite                 1856496      0.19%     70.93% # Class of executed instruction
system.cpu.op_class::FloatMemRead           182059061     18.61%     89.54% # Class of executed instruction
system.cpu.op_class::FloatMemWrite          102349556     10.46%    100.00% # Class of executed instruction
system.cpu.op_class::IprAccess                      0      0.00%    100.00% # Class of executed instruction
system.cpu.op_class::InstPrefetch                   0      0.00%    100.00% # Class of executed instruction
system.cpu.op_class::total                  978191002                       # Class of executed instruction
system.cpu.workload.numSyscalls                    72                       # Number of system calls
system.l2bus.snoop_filter.hit_multi_requests            0                       # Number of requests hitting in the snoop filter with multiple (>1) holders of the requested data.
system.l2bus.snoop_filter.hit_multi_snoops            0                       # Number of snoops hitting in the snoop filter with multiple (>1) holders of the requested data.
system.l2bus.snoop_filter.hit_single_requests      7979965                       # Number of requests hitting in the snoop filter with a single holder of the requested data.
system.l2bus.snoop_filter.hit_single_snoops        41338                       # Number of snoops hitting in the snoop filter with a single holder of the requested data.
system.l2bus.snoop_filter.tot_requests       15961210                       # Total number of requests made to the snoop filter.
system.l2bus.snoop_filter.tot_snoops            41338                       # Total number of snoops made to the snoop filter.
system.membus.snoop_filter.hit_multi_requests            0                       # Number of requests hitting in the snoop filter with multiple (>1) holders of the requested data.
system.membus.snoop_filter.hit_multi_snoops            0                       # Number of snoops hitting in the snoop filter with multiple (>1) holders of the requested data.
system.membus.snoop_filter.hit_single_requests      2882652                       # Number of requests hitting in the snoop filter with a single holder of the requested data.
system.membus.snoop_filter.hit_single_snoops            0                       # Number of snoops hitting in the snoop filter with a single holder of the requested data.
system.membus.snoop_filter.tot_requests       5781708                       # Total number of requests made to the snoop filter.
system.membus.snoop_filter.tot_snoops               0                       # Total number of snoops made to the snoop filter.
system.clk_domain.clock                          1000                       # Clock period in ticks
system.clk_domain.voltage_domain.voltage            1                       # Voltage in Volts
system.cpu.dcache.demand_hits::.cpu.data    284222128                       # number of demand (read+write) hits
system.cpu.dcache.demand_hits::total        284222128                       # number of demand (read+write) hits
system.cpu.dcache.overall_hits::.cpu.data    284222128                       # number of overall hits
system.cpu.dcache.overall_hits::total       284222128                       # number of overall hits
system.cpu.dcache.demand_misses::.cpu.data      7970134                       # number of demand (read+write) misses
system.cpu.dcache.demand_misses::total        7970134                       # number of demand (read+write) misses
system.cpu.dcache.overall_misses::.cpu.data      7970134                       # number of overall misses
system.cpu.dcache.overall_misses::total       7970134                       # number of overall misses
system.cpu.dcache.demand_miss_latency::.cpu.data 435502556000                       # number of demand (read+write) miss cycles
system.cpu.dcache.demand_miss_latency::total 435502556000                       # number of demand (read+write) miss cycles
system.cpu.dcache.overall_miss_latency::.cpu.data 435502556000                       # number of overall miss cycles
system.cpu.dcache.overall_miss_latency::total 435502556000                       # number of overall miss cycles
system.cpu.dcache.demand_accesses::.cpu.data    292192262                       # number of demand (read+write) accesses
system.cpu.dcache.demand_accesses::total    292192262                       # number of demand (read+write) accesses
system.cpu.dcache.overall_accesses::.cpu.data    292192262                       # number of overall (read+write) accesses
system.cpu.dcache.overall_accesses::total    292192262                       # number of overall (read+write) accesses
system.cpu.dcache.demand_miss_rate::.cpu.data     0.027277                       # miss rate for demand accesses
system.cpu.dcache.demand_miss_rate::total     0.027277                       # miss rate for demand accesses
system.cpu.dcache.overall_miss_rate::.cpu.data     0.027277                       # miss rate for overall accesses
system.cpu.dcache.overall_miss_rate::total     0.027277                       # miss rate for overall accesses
system.cpu.dcache.demand_avg_miss_latency::.cpu.data 54641.811041                       # average overall miss latency
system.cpu.dcache.demand_avg_miss_latency::total 54641.811041                       # average overall miss latency
system.cpu.dcache.overall_avg_miss_latency::.cpu.data 54641.811041                       # average overall miss latency
system.cpu.dcache.overall_avg_miss_latency::total 54641.811041                       # average overall miss latency
system.cpu.dcache.blocked_cycles::no_mshrs            0                       # number of cycles access was blocked
system.cpu.dcache.blocked_cycles::no_targets            0                       # number of cycles access was blocked
system.cpu.dcache.blocked::no_mshrs                 0                       # number of cycles access was blocked
system.cpu.dcache.blocked::no_targets               0                       # number of cycles access was blocked
system.cpu.dcache.avg_blocked_cycles::no_mshrs          nan                       # average number of cycles each access was blocked
system.cpu.dcache.avg_blocked_cycles::no_targets          nan                       # average number of cycles each access was blocked
system.cpu.dcache.writebacks::.writebacks      6562844                       # number of writebacks
system.cpu.dcache.writebacks::total           6562844                       # number of writebacks
system.cpu.dcache.demand_mshr_misses::.cpu.data      7970134                       # number of demand (read+write) MSHR misses
system.cpu.dcache.demand_mshr_misses::total      7970134                       # number of demand (read+write) MSHR misses
system.cpu.dcache.overall_mshr_misses::.cpu.data      7970134                       # number of overall MSHR misses
system.cpu.dcache.overall_mshr_misses::total      7970134                       # number of overall MSHR misses
system.cpu.dcache.demand_mshr_miss_latency::.cpu.data 419562288000                       # number of demand (read+write) MSHR miss cycles
system.cpu.dcache.demand_mshr_miss_latency::total 419562288000                       # number of demand (read+write) MSHR miss cycles
system.cpu.dcache.overall_mshr_miss_latency::.cpu.data 419562288000                       # number of overall MSHR miss cycles
system.cpu.dcache.overall_mshr_miss_latency::total 419562288000                       # number of overall MSHR miss cycles
system.cpu.dcache.demand_mshr_miss_rate::.cpu.data     0.027277                       # mshr miss rate for demand accesses
system.cpu.dcache.demand_mshr_miss_rate::total     0.027277                       # mshr miss rate for demand accesses
system.cpu.dcache.overall_mshr_miss_rate::.cpu.data     0.027277                       # mshr miss rate for overall accesses
system.cpu.dcache.overall_mshr_miss_rate::total     0.027277                       # mshr miss rate for overall accesses
system.cpu.dcache.demand_avg_mshr_miss_latency::.cpu.data 52641.811041                       # average overall mshr miss latency
system.cpu.dcache.demand_avg_mshr_miss_latency::total 52641.811041                       # average overall mshr miss latency
system.cpu.dcache.overall_avg_mshr_miss_latency::.cpu.data 52641.811041                       # average overall mshr miss latency
system.cpu.dcache.overall_avg_mshr_miss_latency::total 52641.811041                       # average overall mshr miss latency
system.cpu.dcache.replacements                7969110                       # number of replacements
system.cpu.dcache.ReadReq_hits::.cpu.data    184112547                       # number of ReadReq hits
system.cpu.dcache.ReadReq_hits::total       184112547                       # number of ReadReq hits
system.cpu.dcache.ReadReq_misses::.cpu.data      3873643                       # number of ReadReq misses
system.cpu.dcache.ReadReq_misses::total       3873643                       # number of ReadReq misses
system.cpu.dcache.ReadReq_miss_latency::.cpu.data 272263012000                       # number of ReadReq miss cycles
system.cpu.dcache.ReadReq_miss_latency::total 272263012000                       # number of ReadReq miss cycles
system.cpu.dcache.ReadReq_accesses::.cpu.data    187986190                       # number of ReadReq accesses(hits+misses)
system.cpu.dcache.ReadReq_accesses::total    187986190                       # number of ReadReq accesses(hits+misses)
system.cpu.dcache.ReadReq_miss_rate::.cpu.data     0.020606                       # miss rate for ReadReq accesses
system.cpu.dcache.ReadReq_miss_rate::total     0.020606                       # miss rate for ReadReq accesses
system.cpu.dcache.ReadReq_avg_miss_latency::.cpu.data 70286.036168                       # average ReadReq miss latency
system.cpu.dcache.ReadReq_avg_miss_latency::total 70286.036168                       # average ReadReq miss latency
system.cpu.dcache.ReadReq_mshr_misses::.cpu.data      3873643                       # number of ReadReq MSHR misses
system.cpu.dcache.ReadReq_mshr_misses::total      3873643                       # number of ReadReq MSHR misses
system.cpu.dcache.ReadReq_mshr_miss_latency::.cpu.data 264515726000                       # number of ReadReq MSHR miss cycles
system.cpu.dcache.ReadReq_mshr_miss_latency::total 264515726000                       # number of ReadReq MSHR miss cycles
system.cpu.dcache.ReadReq_mshr_miss_rate::.cpu.data     0.020606                       # mshr miss rate for ReadReq accesses
system.cpu.dcache.ReadReq_mshr_miss_rate::total     0.020606                       # mshr miss rate for ReadReq accesses
system.cpu.dcache.ReadReq_avg_mshr_miss_latency::.cpu.data 68286.036168                       # average ReadReq mshr miss latency
system.cpu.dcache.ReadReq_avg_mshr_miss_latency::total 68286.036168                       # average ReadReq mshr miss latency
system.cpu.dcache.WriteReq_hits::.cpu.data    100109581                       # number of WriteReq hits
system.cpu.dcache.WriteReq_hits::total      100109581                       # number of WriteReq hits
system.cpu.dcache.WriteReq_misses::.cpu.data      4096491                       # number of WriteReq misses
system.cpu.dcache.WriteReq_misses::total      4096491                       # number of WriteReq misses
system.cpu.dcache.WriteReq_miss_latency::.cpu.data 163239544000                       # number of WriteReq miss cycles
system.cpu.dcache.WriteReq_miss_latency::total 163239544000                       # number of WriteReq miss cycles
system.cpu.dcache.WriteReq_accesses::.cpu.data    104206072                       # number of WriteReq accesses(hits+misses)
system.cpu.dcache.WriteReq_accesses::total    104206072                       # number of WriteReq accesses(hits+misses)
system.cpu.dcache.WriteReq_miss_rate::.cpu.data     0.039311                       # miss rate for WriteReq accesses
system.cpu.dcache.WriteReq_miss_rate::total     0.039311                       # miss rate for WriteReq accesses
system.cpu.dcache.WriteReq_avg_miss_latency::.cpu.data 39848.627520                       # average WriteReq miss latency
system.cpu.dcache.WriteReq_avg_miss_latency::total 39848.627520                       # average WriteReq miss latency
system.cpu.dcache.WriteReq_mshr_misses::.cpu.data      4096491                       # number of WriteReq MSHR misses
system.cpu.dcache.WriteReq_mshr_misses::total      4096491                       # number of WriteReq MSHR misses
system.cpu.dcache.WriteReq_mshr_miss_latency::.cpu.data 155046562000                       # number of WriteReq MSHR miss cycles
system.cpu.dcache.WriteReq_mshr_miss_latency::total 155046562000                       # number of WriteReq MSHR miss cycles
system.cpu.dcache.WriteReq_mshr_miss_rate::.cpu.data     0.039311                       # mshr miss rate for WriteReq accesses
system.cpu.dcache.WriteReq_mshr_miss_rate::total     0.039311                       # mshr miss rate for WriteReq accesses
system.cpu.dcache.WriteReq_avg_mshr_miss_latency::.cpu.data 37848.627520                       # average WriteReq mshr miss latency
system.cpu.dcache.WriteReq_avg_mshr_miss_latency::total 37848.627520                       # average WriteReq mshr miss latency
system.cpu.dcache.power_state.pwrStateResidencyTicks::UNDEFINED 2616359799000                       # Cumulative time (in ticks) in various power states
system.cpu.dcache.tags.tagsinuse          1023.902228                       # Cycle average of tags in use
system.cpu.dcache.tags.total_refs           292192262                       # Total number of references to valid blocks.
system.cpu.dcache.tags.sampled_refs           7970134                       # Sample count of references to valid blocks.
system.cpu.dcache.tags.avg_refs             36.660897                       # Average number of references to valid blocks.
system.cpu.dcache.tags.warmup_cycle            224000                       # Cycle when the warmup percentage was hit.
system.cpu.dcache.tags.occ_blocks::.cpu.data  1023.902228                       # Average occupied blocks per requestor
system.cpu.dcache.tags.occ_percent::.cpu.data     0.999905                       # Average percentage of cache occupancy
system.cpu.dcache.tags.occ_percent::total     0.999905                       # Average percentage of cache occupancy
system.cpu.dcache.tags.occ_task_id_blocks::1024         1024                       # Occupied blocks per task id
system.cpu.dcache.tags.age_task_id_blocks_1024::0           25                       # Occupied blocks per task id
system.cpu.dcache.tags.age_task_id_blocks_1024::1           96                       # Occupied blocks per task id
system.cpu.dcache.tags.age_task_id_blocks_1024::2          864                       # Occupied blocks per task id
system.cpu.dcache.tags.age_task_id_blocks_1024::3           28                       # Occupied blocks per task id
system.cpu.dcache.tags.age_task_id_blocks_1024::4           11                       # Occupied blocks per task id
system.cpu.dcache.tags.occ_task_id_percent::1024            1                       # Percentage of cache occupancy per task id
system.cpu.dcache.tags.tag_accesses         592354658                       # Number of tag accesses
system.cpu.dcache.tags.data_accesses        592354658                       # Number of data accesses
system.cpu.dcache.tags.power_state.pwrStateResidencyTicks::UNDEFINED 2616359799000                       # Cumulative time (in ticks) in various power states
system.cpu.dtb.rdAccesses                   187986191                       # TLB accesses on read requests
system.cpu.dtb.wrAccesses                   104206094                       # TLB accesses on write requests
system.cpu.dtb.rdMisses                        108733                       # TLB misses on read requests
system.cpu.dtb.wrMisses                         99901                       # TLB misses on write requests
system.cpu.dtb.walker.power_state.pwrStateResidencyTicks::UNDEFINED 2616359799000                       # Cumulative time (in ticks) in various power states
system.cpu.icache.demand_hits::.cpu.inst    805853249                       # number of demand (read+write) hits
system.cpu.icache.demand_hits::total        805853249                       # number of demand (read+write) hits
system.cpu.icache.overall_hits::.cpu.inst    805853249                       # number of overall hits
system.cpu.icache.overall_hits::total       805853249                       # number of overall hits
system.cpu.icache.demand_misses::.cpu.inst        11111                       # number of demand (read+write) misses
system.cpu.icache.demand_misses::total          11111                       # number of demand (read+write) misses
system.cpu.icache.overall_misses::.cpu.inst        11111                       # number of overall misses
system.cpu.icache.overall_misses::total         11111                       # number of overall misses
system.cpu.icache.demand_miss_latency::.cpu.inst    706912000                       # number of demand (read+write) miss cycles
system.cpu.icache.demand_miss_latency::total    706912000                       # number of demand (read+write) miss cycles
system.cpu.icache.overall_miss_latency::.cpu.inst    706912000                       # number of overall miss cycles
system.cpu.icache.overall_miss_latency::total    706912000                       # number of overall miss cycles
system.cpu.icache.demand_accesses::.cpu.inst    805864360                       # number of demand (read+write) accesses
system.cpu.icache.demand_accesses::total    805864360                       # number of demand (read+write) accesses
system.cpu.icache.overall_accesses::.cpu.inst    805864360                       # number of overall (read+write) accesses
system.cpu.icache.overall_accesses::total    805864360                       # number of overall (read+write) accesses
system.cpu.icache.demand_miss_rate::.cpu.inst     0.000014                       # miss rate for demand accesses
system.cpu.icache.demand_miss_rate::total     0.000014                       # miss rate for demand accesses
system.cpu.icache.overall_miss_rate::.cpu.inst     0.000014                       # miss rate for overall accesses
system.cpu.icache.overall_miss_rate::total     0.000014                       # miss rate for overall accesses
system.cpu.icache.demand_avg_miss_latency::.cpu.inst 63622.716227                       # average overall miss latency
system.cpu.icache.demand_avg_miss_latency::total 63622.716227                       # average overall miss latency
system.cpu.icache.overall_avg_miss_latency::.cpu.inst 63622.716227                       # average overall miss latency
system.cpu.icache.overall_avg_miss_latency::total 63622.716227                       # average overall miss latency
system.cpu.icache.blocked_cycles::no_mshrs            0                       # number of cycles access was blocked
system.cpu.icache.blocked_cycles::no_targets            0                       # number of cycles access was blocked
system.cpu.icache.blocked::no_mshrs                 0                       # number of cycles access was blocked
system.cpu.icache.blocked::no_targets               0                       # number of cycles access was blocked
system.cpu.icache.avg_blocked_cycles::no_mshrs          nan                       # average number of cycles each access was blocked
system.cpu.icache.avg_blocked_cycles::no_targets          nan                       # average number of cycles each access was blocked
system.cpu.icache.demand_mshr_misses::.cpu.inst        11111                       # number of demand (read+write) MSHR misses
system.cpu.icache.demand_mshr_misses::total        11111                       # number of demand (read+write) MSHR misses
system.cpu.icache.overall_mshr_misses::.cpu.inst        11111                       # number of overall MSHR misses
system.cpu.icache.overall_mshr_misses::total        11111                       # number of overall MSHR misses
system.cpu.icache.demand_mshr_miss_latency::.cpu.inst    684690000                       # number of demand (read+write) MSHR miss cycles
system.cpu.icache.demand_mshr_miss_latency::total    684690000                       # number of demand (read+write) MSHR miss cycles
system.cpu.icache.overall_mshr_miss_latency::.cpu.inst    684690000                       # number of overall MSHR miss cycles
system.cpu.icache.overall_mshr_miss_latency::total    684690000                       # number of overall MSHR miss cycles
system.cpu.icache.demand_mshr_miss_rate::.cpu.inst     0.000014                       # mshr miss rate for demand accesses
system.cpu.icache.demand_mshr_miss_rate::total     0.000014                       # mshr miss rate for demand accesses
system.cpu.icache.overall_mshr_miss_rate::.cpu.inst     0.000014                       # mshr miss rate for overall accesses
system.cpu.icache.overall_mshr_miss_rate::total     0.000014                       # mshr miss rate for overall accesses
system.cpu.icache.demand_avg_mshr_miss_latency::.cpu.inst 61622.716227                       # average overall mshr miss latency
system.cpu.icache.demand_avg_mshr_miss_latency::total 61622.716227                       # average overall mshr miss latency
system.cpu.icache.overall_avg_mshr_miss_latency::.cpu.inst 61622.716227                       # average overall mshr miss latency
system.cpu.icache.overall_avg_mshr_miss_latency::total 61622.716227                       # average overall mshr miss latency
system.cpu.icache.replacements                  10855                       # number of replacements
system.cpu.icache.ReadReq_hits::.cpu.inst    805853249                       # number of ReadReq hits
system.cpu.icache.ReadReq_hits::total       805853249                       # number of ReadReq hits
system.cpu.icache.ReadReq_misses::.cpu.inst        11111                       # number of ReadReq misses
system.cpu.icache.ReadReq_misses::total         11111                       # number of ReadReq misses
system.cpu.icache.ReadReq_miss_latency::.cpu.inst    706912000                       # number of ReadReq miss cycles
system.cpu.icache.ReadReq_miss_latency::total    706912000                       # number of ReadReq miss cycles
system.cpu.icache.ReadReq_accesses::.cpu.inst    805864360                       # number of ReadReq accesses(hits+misses)
system.cpu.icache.ReadReq_accesses::total    805864360                       # number of ReadReq accesses(hits+misses)
system.cpu.icache.ReadReq_miss_rate::.cpu.inst     0.000014                       # miss rate for ReadReq accesses
system.cpu.icache.ReadReq_miss_rate::total     0.000014                       # miss rate for ReadReq accesses
system.cpu.icache.ReadReq_avg_miss_latency::.cpu.inst 63622.716227                       # average ReadReq miss latency
system.cpu.icache.ReadReq_avg_miss_latency::total 63622.716227                       # average ReadReq miss latency
system.cpu.icache.ReadReq_mshr_misses::.cpu.inst        11111                       # number of ReadReq MSHR misses
system.cpu.icache.ReadReq_mshr_misses::total        11111                       # number of ReadReq MSHR misses
system.cpu.icache.ReadReq_mshr_miss_latency::.cpu.inst    684690000                       # number of ReadReq MSHR miss cycles
system.cpu.icache.ReadReq_mshr_miss_latency::total    684690000                       # number of ReadReq MSHR miss cycles
system.cpu.icache.ReadReq_mshr_miss_rate::.cpu.inst     0.000014                       # mshr miss rate for ReadReq accesses
system.cpu.icache.ReadReq_mshr_miss_rate::total     0.000014                       # mshr miss rate for ReadReq accesses
system.cpu.icache.ReadReq_avg_mshr_miss_latency::.cpu.inst 61622.716227                       # average ReadReq mshr miss latency
system.cpu.icache.ReadReq_avg_mshr_miss_latency::total 61622.716227                       # average ReadReq mshr miss latency
system.cpu.icache.power_state.pwrStateResidencyTicks::UNDEFINED 2616359799000                       # Cumulative time (in ticks) in various power states
system.cpu.icache.tags.tagsinuse           255.995142                       # Cycle average of tags in use
system.cpu.icache.tags.total_refs           805864360                       # Total number of references to valid blocks.
system.cpu.icache.tags.sampled_refs             11111                       # Sample count of references to valid blocks.
system.cpu.icache.tags.avg_refs          72528.517685                       # Average number of references to valid blocks.
system.cpu.icache.tags.warmup_cycle            107000                       # Cycle when the warmup percentage was hit.
system.cpu.icache.tags.occ_blocks::.cpu.inst   255.995142                       # Average occupied blocks per requestor
system.cpu.icache.tags.occ_percent::.cpu.inst     0.999981                       # Average percentage of cache occupancy
system.cpu.icache.tags.occ_percent::total     0.999981                       # Average percentage of cache occupancy
system.cpu.icache.tags.occ_task_id_blocks::1024          256                       # Occupied blocks per task id
system.cpu.icache.tags.age_task_id_blocks_1024::0           39                       # Occupied blocks per task id
system.cpu.icache.tags.age_task_id_blocks_1024::1          103                       # Occupied blocks per task id
system.cpu.icache.tags.age_task_id_blocks_1024::2          112                       # Occupied blocks per task id
system.cpu.icache.tags.age_task_id_blocks_1024::4            2                       # Occupied blocks per task id
system.cpu.icache.tags.occ_task_id_percent::1024            1                       # Percentage of cache occupancy per task id
system.cpu.icache.tags.tag_accesses        1611739831                       # Number of tag accesses
system.cpu.icache.tags.data_accesses       1611739831                       # Number of data accesses
system.cpu.icache.tags.power_state.pwrStateResidencyTicks::UNDEFINED 2616359799000                       # Cumulative time (in ticks) in various power states
system.cpu.interrupts.clk_domain.clock          16000                       # Clock period in ticks
system.cpu.itb.rdAccesses                           0                       # TLB accesses on read requests
system.cpu.itb.wrAccesses                   805864360                       # TLB accesses on write requests
system.cpu.itb.rdMisses                             0                       # TLB misses on read requests
system.cpu.itb.wrMisses                           111                       # TLB misses on write requests
system.cpu.itb.walker.power_state.pwrStateResidencyTicks::UNDEFINED 2616359799000                       # Cumulative time (in ticks) in various power states
system.cpu.power_state.pwrStateResidencyTicks::ON 2616359799000                       # Cumulative time (in ticks) in various power states
system.cpu.thread_0.numInsts                        0                       # Number of Instructions committed
system.cpu.thread_0.numOps                          0                       # Number of Ops committed
system.cpu.thread_0.numMemRefs                      0                       # Number of Memory References
system.l2bus.trans_dist::ReadResp             3884754                       # Transaction distribution
system.l2bus.trans_dist::WritebackDirty       9100085                       # Transaction distribution
system.l2bus.trans_dist::CleanEvict           1788556                       # Transaction distribution
system.l2bus.trans_dist::ReadExReq            4096491                       # Transaction distribution
system.l2bus.trans_dist::ReadExResp           4096491                       # Transaction distribution
system.l2bus.trans_dist::ReadSharedReq        3884754                       # Transaction distribution
system.l2bus.pkt_count_system.cpu.icache.mem_side_port::system.l2cache.cpu_side_port        33077                       # Packet count per connected requestor and responder (bytes)
system.l2bus.pkt_count_system.cpu.dcache.mem_side_port::system.l2cache.cpu_side_port     23909378                       # Packet count per connected requestor and responder (bytes)
system.l2bus.pkt_count::total                23942455                       # Packet count per connected requestor and responder (bytes)
system.l2bus.pkt_size_system.cpu.icache.mem_side_port::system.l2cache.cpu_side_port       711104                       # Cumulative packet size per connected requestor and responder (bytes)
system.l2bus.pkt_size_system.cpu.dcache.mem_side_port::system.l2cache.cpu_side_port    930110592                       # Cumulative packet size per connected requestor and responder (bytes)
system.l2bus.pkt_size::total                930821696                       # Cumulative packet size per connected requestor and responder (bytes)
system.l2bus.snoops                           2908676                       # Total snoops (count)
system.l2bus.snoopTraffic                   162383424                       # Total snoop traffic (bytes)
system.l2bus.snoop_fanout::samples           10889921                       # Request fanout histogram
system.l2bus.snoop_fanout::mean              0.003796                       # Request fanout histogram
system.l2bus.snoop_fanout::stdev             0.061495                       # Request fanout histogram
system.l2bus.snoop_fanout::underflows               0      0.00%      0.00% # Request fanout histogram
system.l2bus.snoop_fanout::0                 10848583     99.62%     99.62% # Request fanout histogram
system.l2bus.snoop_fanout::1                    41338      0.38%    100.00% # Request fanout histogram
system.l2bus.snoop_fanout::2                        0      0.00%    100.00% # Request fanout histogram
system.l2bus.snoop_fanout::overflows                0      0.00%    100.00% # Request fanout histogram
system.l2bus.snoop_fanout::min_value                0                       # Request fanout histogram
system.l2bus.snoop_fanout::max_value                1                       # Request fanout histogram
system.l2bus.snoop_fanout::total             10889921                       # Request fanout histogram
system.l2bus.power_state.pwrStateResidencyTicks::UNDEFINED 2616359799000                       # Cumulative time (in ticks) in various power states
system.l2bus.reqLayer0.occupancy          29086898000                       # Layer occupancy (ticks)
system.l2bus.reqLayer0.utilization                1.1                       # Layer utilization (%)
system.l2bus.respLayer0.occupancy            33333000                       # Layer occupancy (ticks)
system.l2bus.respLayer0.utilization               0.0                       # Layer utilization (%)
system.l2bus.respLayer1.occupancy         23910402000                       # Layer occupancy (ticks)
system.l2bus.respLayer1.utilization               0.9                       # Layer utilization (%)
system.l2cache.demand_hits::.cpu.inst            6002                       # number of demand (read+write) hits
system.l2cache.demand_hits::.cpu.data         5076187                       # number of demand (read+write) hits
system.l2cache.demand_hits::total             5082189                       # number of demand (read+write) hits
system.l2cache.overall_hits::.cpu.inst           6002                       # number of overall hits
system.l2cache.overall_hits::.cpu.data        5076187                       # number of overall hits
system.l2cache.overall_hits::total            5082189                       # number of overall hits
system.l2cache.demand_misses::.cpu.inst          5109                       # number of demand (read+write) misses
system.l2cache.demand_misses::.cpu.data       2893947                       # number of demand (read+write) misses
system.l2cache.demand_misses::total           2899056                       # number of demand (read+write) misses
system.l2cache.overall_misses::.cpu.inst         5109                       # number of overall misses
system.l2cache.overall_misses::.cpu.data      2893947                       # number of overall misses
system.l2cache.overall_misses::total          2899056                       # number of overall misses
system.l2cache.demand_miss_latency::.cpu.inst    525200000                       # number of demand (read+write) miss cycles
system.l2cache.demand_miss_latency::.cpu.data 289033805000                       # number of demand (read+write) miss cycles
system.l2cache.demand_miss_latency::total 289559005000                       # number of demand (read+write) miss cycles
system.l2cache.overall_miss_latency::.cpu.inst    525200000                       # number of overall miss cycles
system.l2cache.overall_miss_latency::.cpu.data 289033805000                       # number of overall miss cycles
system.l2cache.overall_miss_latency::total 289559005000                       # number of overall miss cycles
system.l2cache.demand_accesses::.cpu.inst        11111                       # number of demand (read+write) accesses
system.l2cache.demand_accesses::.cpu.data      7970134                       # number of demand (read+write) accesses
system.l2cache.demand_accesses::total         7981245                       # number of demand (read+write) accesses
system.l2cache.overall_accesses::.cpu.inst        11111                       # number of overall (read+write) accesses
system.l2cache.overall_accesses::.cpu.data      7970134                       # number of overall (read+write) accesses
system.l2cache.overall_accesses::total        7981245                       # number of overall (read+write) accesses
system.l2cache.demand_miss_rate::.cpu.inst     0.459815                       # miss rate for demand accesses
system.l2cache.demand_miss_rate::.cpu.data     0.363099                       # miss rate for demand accesses
system.l2cache.demand_miss_rate::total       0.363234                       # miss rate for demand accesses
system.l2cache.overall_miss_rate::.cpu.inst     0.459815                       # miss rate for overall accesses
system.l2cache.overall_miss_rate::.cpu.data     0.363099                       # miss rate for overall accesses
system.l2cache.overall_miss_rate::total      0.363234                       # miss rate for overall accesses
system.l2cache.demand_avg_miss_latency::.cpu.inst 102798.982188                       # average overall miss latency
system.l2cache.demand_avg_miss_latency::.cpu.data 99875.293155                       # average overall miss latency
system.l2cache.demand_avg_miss_latency::total 99880.445566                       # average overall miss latency
system.l2cache.overall_avg_miss_latency::.cpu.inst 102798.982188                       # average overall miss latency
system.l2cache.overall_avg_miss_latency::.cpu.data 99875.293155                       # average overall miss latency
system.l2cache.overall_avg_miss_latency::total 99880.445566                       # average overall miss latency
system.l2cache.blocked_cycles::no_mshrs             0                       # number of cycles access was blocked
system.l2cache.blocked_cycles::no_targets            0                       # number of cycles access was blocked
system.l2cache.blocked::no_mshrs                    0                       # number of cycles access was blocked
system.l2cache.blocked::no_targets                  0                       # number of cycles access was blocked
system.l2cache.avg_blocked_cycles::no_mshrs          nan                       # average number of cycles each access was blocked
system.l2cache.avg_blocked_cycles::no_targets          nan                       # average number of cycles each access was blocked
system.l2cache.writebacks::.writebacks        2537241                       # number of writebacks
system.l2cache.writebacks::total              2537241                       # number of writebacks
system.l2cache.demand_mshr_misses::.cpu.inst         5109                       # number of demand (read+write) MSHR misses
system.l2cache.demand_mshr_misses::.cpu.data      2893947                       # number of demand (read+write) MSHR misses
system.l2cache.demand_mshr_misses::total      2899056                       # number of demand (read+write) MSHR misses
system.l2cache.overall_mshr_misses::.cpu.inst         5109                       # number of overall MSHR misses
system.l2cache.overall_mshr_misses::.cpu.data      2893947                       # number of overall MSHR misses
system.l2cache.overall_mshr_misses::total      2899056                       # number of overall MSHR misses
system.l2cache.demand_mshr_miss_latency::.cpu.inst    423020000                       # number of demand (read+write) MSHR miss cycles
system.l2cache.demand_mshr_miss_latency::.cpu.data 231154865000                       # number of demand (read+write) MSHR miss cycles
system.l2cache.demand_mshr_miss_latency::total 231577885000                       # number of demand (read+write) MSHR miss cycles
system.l2cache.overall_mshr_miss_latency::.cpu.inst    423020000                       # number of overall MSHR miss cycles
system.l2cache.overall_mshr_miss_latency::.cpu.data 231154865000                       # number of overall MSHR miss cycles
system.l2cache.overall_mshr_miss_latency::total 231577885000                       # number of overall MSHR miss cycles
system.l2cache.demand_mshr_miss_rate::.cpu.inst     0.459815                       # mshr miss rate for demand accesses
system.l2cache.demand_mshr_miss_rate::.cpu.data     0.363099                       # mshr miss rate for demand accesses
system.l2cache.demand_mshr_miss_rate::total     0.363234                       # mshr miss rate for demand accesses
system.l2cache.overall_mshr_miss_rate::.cpu.inst     0.459815                       # mshr miss rate for overall accesses
system.l2cache.overall_mshr_miss_rate::.cpu.data     0.363099                       # mshr miss rate for overall accesses
system.l2cache.overall_mshr_miss_rate::total     0.363234                       # mshr miss rate for overall accesses
system.l2cache.demand_avg_mshr_miss_latency::.cpu.inst 82798.982188                       # average overall mshr miss latency
system.l2cache.demand_avg_mshr_miss_latency::.cpu.data 79875.293155                       # average overall mshr miss latency
system.l2cache.demand_avg_mshr_miss_latency::total 79880.445566                       # average overall mshr miss latency
system.l2cache.overall_avg_mshr_miss_latency::.cpu.inst 82798.982188                       # average overall mshr miss latency
system.l2cache.overall_avg_mshr_miss_latency::.cpu.data 79875.293155                       # average overall mshr miss latency
system.l2cache.overall_avg_mshr_miss_latency::total 79880.445566                       # average overall mshr miss latency
system.l2cache.replacements                   2880016                       # number of replacements
system.l2cache.WritebackDirty_hits::.writebacks      6562596                       # number of WritebackDirty hits
system.l2cache.WritebackDirty_hits::total      6562596                       # number of WritebackDirty hits
system.l2cache.WritebackDirty_misses::.writebacks          248                       # number of WritebackDirty misses
system.l2cache.WritebackDirty_misses::total          248                       # number of WritebackDirty misses
system.l2cache.WritebackDirty_accesses::.writebacks      6562844                       # number of WritebackDirty accesses(hits+misses)
system.l2cache.WritebackDirty_accesses::total      6562844                       # number of WritebackDirty accesses(hits+misses)
system.l2cache.WritebackDirty_miss_rate::.writebacks     0.000038                       # miss rate for WritebackDirty accesses
system.l2cache.WritebackDirty_miss_rate::total     0.000038                       # miss rate for WritebackDirty accesses
system.l2cache.WritebackDirty_mshr_misses::.writebacks          248                       # number of WritebackDirty MSHR misses
system.l2cache.WritebackDirty_mshr_misses::total          248                       # number of WritebackDirty MSHR misses
system.l2cache.WritebackDirty_mshr_miss_rate::.writebacks     0.000038                       # mshr miss rate for WritebackDirty accesses
system.l2cache.WritebackDirty_mshr_miss_rate::total     0.000038                       # mshr miss rate for WritebackDirty accesses
system.l2cache.CleanEvict_mshr_misses::.writebacks        15066                       # number of CleanEvict MSHR misses
system.l2cache.CleanEvict_mshr_misses::total        15066                       # number of CleanEvict MSHR misses
system.l2cache.CleanEvict_mshr_miss_rate::.writebacks          inf                       # mshr miss rate for CleanEvict accesses
system.l2cache.CleanEvict_mshr_miss_rate::total          inf                       # mshr miss rate for CleanEvict accesses
system.l2cache.ReadExReq_hits::.cpu.data      3378276                       # number of ReadExReq hits
system.l2cache.ReadExReq_hits::total          3378276                       # number of ReadExReq hits
system.l2cache.ReadExReq_misses::.cpu.data       718215                       # number of ReadExReq misses
system.l2cache.ReadExReq_misses::total         718215                       # number of ReadExReq misses
system.l2cache.ReadExReq_miss_latency::.cpu.data  71795148000                       # number of ReadExReq miss cycles
system.l2cache.ReadExReq_miss_latency::total  71795148000                       # number of ReadExReq miss cycles
system.l2cache.ReadExReq_accesses::.cpu.data      4096491                       # number of ReadExReq accesses(hits+misses)
system.l2cache.ReadExReq_accesses::total      4096491                       # number of ReadExReq accesses(hits+misses)
system.l2cache.ReadExReq_miss_rate::.cpu.data     0.175324                       # miss rate for ReadExReq accesses
system.l2cache.ReadExReq_miss_rate::total     0.175324                       # miss rate for ReadExReq accesses
system.l2cache.ReadExReq_avg_miss_latency::.cpu.data 99963.309037                       # average ReadExReq miss latency
system.l2cache.ReadExReq_avg_miss_latency::total 99963.309037                       # average ReadExReq miss latency
system.l2cache.ReadExReq_mshr_misses::.cpu.data       718215                       # number of ReadExReq MSHR misses
system.l2cache.ReadExReq_mshr_misses::total       718215                       # number of ReadExReq MSHR misses
system.l2cache.ReadExReq_mshr_miss_latency::.cpu.data  57430848000                       # number of ReadExReq MSHR miss cycles
system.l2cache.ReadExReq_mshr_miss_latency::total  57430848000                       # number of ReadExReq MSHR miss cycles
system.l2cache.ReadExReq_mshr_miss_rate::.cpu.data     0.175324                       # mshr miss rate for ReadExReq accesses
system.l2cache.ReadExReq_mshr_miss_rate::total     0.175324                       # mshr miss rate for ReadExReq accesses
system.l2cache.ReadExReq_avg_mshr_miss_latency::.cpu.data 79963.309037                       # average ReadExReq mshr miss latency
system.l2cache.ReadExReq_avg_mshr_miss_latency::total 79963.309037                       # average ReadExReq mshr miss latency
system.l2cache.ReadSharedReq_hits::.cpu.inst         6002                       # number of ReadSharedReq hits
system.l2cache.ReadSharedReq_hits::.cpu.data      1697911                       # number of ReadSharedReq hits
system.l2cache.ReadSharedReq_hits::total      1703913                       # number of ReadSharedReq hits
system.l2cache.ReadSharedReq_misses::.cpu.inst         5109                       # number of ReadSharedReq misses
system.l2cache.ReadSharedReq_misses::.cpu.data      2175732                       # number of ReadSharedReq misses
system.l2cache.ReadSharedReq_misses::total      2180841                       # number of ReadSharedReq misses
system.l2cache.ReadSharedReq_miss_latency::.cpu.inst    525200000                       # number of ReadSharedReq miss cycles
system.l2cache.ReadSharedReq_miss_latency::.cpu.data 217238657000                       # number of ReadSharedReq miss cycles
system.l2cache.ReadSharedReq_miss_latency::total 217763857000                       # number of ReadSharedReq miss cycles
system.l2cache.ReadSharedReq_accesses::.cpu.inst        11111                       # number of ReadSharedReq accesses(hits+misses)
system.l2cache.ReadSharedReq_accesses::.cpu.data      3873643                       # number of ReadSharedReq accesses(hits+misses)
system.l2cache.ReadSharedReq_accesses::total      3884754                       # number of ReadSharedReq accesses(hits+misses)
system.l2cache.ReadSharedReq_miss_rate::.cpu.inst     0.459815                       # miss rate for ReadSharedReq accesses
system.l2cache.ReadSharedReq_miss_rate::.cpu.data     0.561676                       # miss rate for ReadSharedReq accesses
system.l2cache.ReadSharedReq_miss_rate::total     0.561385                       # miss rate for ReadSharedReq accesses
system.l2cache.ReadSharedReq_avg_miss_latency::.cpu.inst 102798.982188                       # average ReadSharedReq miss latency
system.l2cache.ReadSharedReq_avg_miss_latency::.cpu.data 99846.238875                       # average ReadSharedReq miss latency
system.l2cache.ReadSharedReq_avg_miss_latency::total 99853.156191                       # average ReadSharedReq miss latency
system.l2cache.ReadSharedReq_mshr_misses::.cpu.inst         5109                       # number of ReadSharedReq MSHR misses
system.l2cache.ReadSharedReq_mshr_misses::.cpu.data      2175732                       # number of ReadSharedReq MSHR misses
system.l2cache.ReadSharedReq_mshr_misses::total      2180841                       # number of ReadSharedReq MSHR misses
system.l2cache.ReadSharedReq_mshr_miss_latency::.cpu.inst    423020000                       # number of ReadSharedReq MSHR miss cycles
system.l2cache.ReadSharedReq_mshr_miss_latency::.cpu.data 173724017000                       # number of ReadSharedReq MSHR miss cycles
system.l2cache.ReadSharedReq_mshr_miss_latency::total 174147037000                       # number of ReadSharedReq MSHR miss cycles
system.l2cache.ReadSharedReq_mshr_miss_rate::.cpu.inst     0.459815                       # mshr miss rate for ReadSharedReq accesses
system.l2cache.ReadSharedReq_mshr_miss_rate::.cpu.data     0.561676                       # mshr miss rate for ReadSharedReq accesses
system.l2cache.ReadSharedReq_mshr_miss_rate::total     0.561385                       # mshr miss rate for ReadSharedReq accesses
system.l2cache.ReadSharedReq_avg_mshr_miss_latency::.cpu.inst 82798.982188                       # average ReadSharedReq mshr miss latency
system.l2cache.ReadSharedReq_avg_mshr_miss_latency::.cpu.data 79846.238875                       # average ReadSharedReq mshr miss latency
system.l2cache.ReadSharedReq_avg_mshr_miss_latency::total 79853.156191                       # average ReadSharedReq mshr miss latency
system.l2cache.power_state.pwrStateResidencyTicks::UNDEFINED 2616359799000                       # Cumulative time (in ticks) in various power states
system.l2cache.replacement_policy.totalBypasses        28908                       # Total number of cache bypasses
system.l2cache.replacement_policy.effectiveBypasses            6                       # Bypasses that correctly skipped non-reused blocks
system.l2cache.replacement_policy.ineffectiveBypasses        26546                       # Bypasses that incorrectly skipped requested blocks
system.l2cache.replacement_policy.virtualEffectiveBypasses           68                       # Virtual bypasses correctly predicting non-reused blocks
system.l2cache.replacement_policy.virtualIneffectiveBypasses       141406                       # Virtual bypasses incorrectly predicting requested blocks
system.l2cache.tags.tagsinuse            16365.857790                       # Cycle average of tags in use
system.l2cache.tags.total_refs               15917236                       # Total number of references to valid blocks.
system.l2cache.tags.sampled_refs              2896400                       # Sample count of references to valid blocks.
system.l2cache.tags.avg_refs                 5.495524                       # Average number of references to valid blocks.
system.l2cache.tags.warmup_cycle                86000                       # Cycle when the warmup percentage was hit.
system.l2cache.tags.occ_blocks::.writebacks   275.226511                       # Average occupied blocks per requestor
system.l2cache.tags.occ_blocks::.cpu.inst     9.606659                       # Average occupied blocks per requestor
system.l2cache.tags.occ_blocks::.cpu.data 16081.024620                       # Average occupied blocks per requestor
system.l2cache.tags.occ_percent::.writebacks     0.016798                       # Average percentage of cache occupancy
system.l2cache.tags.occ_percent::.cpu.inst     0.000586                       # Average percentage of cache occupancy
system.l2cache.tags.occ_percent::.cpu.data     0.981508                       # Average percentage of cache occupancy
system.l2cache.tags.occ_percent::total       0.998893                       # Average percentage of cache occupancy
system.l2cache.tags.occ_task_id_blocks::1024        16384                       # Occupied blocks per task id
system.l2cache.tags.age_task_id_blocks_1024::0           58                       # Occupied blocks per task id
system.l2cache.tags.age_task_id_blocks_1024::1          128                       # Occupied blocks per task id
system.l2cache.tags.age_task_id_blocks_1024::2         1819                       # Occupied blocks per task id
system.l2cache.tags.age_task_id_blocks_1024::3         6213                       # Occupied blocks per task id
system.l2cache.tags.age_task_id_blocks_1024::4         8166                       # Occupied blocks per task id
system.l2cache.tags.occ_task_id_percent::1024            1                       # Percentage of cache occupancy per task id
system.l2cache.tags.tag_accesses            130586080                       # Number of tag accesses
system.l2cache.tags.data_accesses           130586080                       # Number of data accesses
system.l2cache.tags.power_state.pwrStateResidencyTicks::UNDEFINED 2616359799000                       # Cumulative time (in ticks) in various power states
system.mem_ctrl.avgPriority_.writebacks::samples   2537489.00                       # Average QoS priority value for accepted requests
system.mem_ctrl.avgPriority_.cpu.inst::samples      5109.00                       # Average QoS priority value for accepted requests
system.mem_ctrl.avgPriority_.cpu.data::samples   2893899.00                       # Average QoS priority value for accepted requests
system.mem_ctrl.priorityMinLatency       0.000000018750                       # per QoS priority minimum request to response latency (s)
system.mem_ctrl.priorityMaxLatency       0.002938622500                       # per QoS priority maximum request to response latency (s)
system.mem_ctrl.numReadWriteTurnArounds        145317                       # Number of turnarounds from READ to WRITE
system.mem_ctrl.numWriteReadTurnArounds        145317                       # Number of turnarounds from WRITE to READ
system.mem_ctrl.numStayReadState              8936254                       # Number of times bus staying in READ state
system.mem_ctrl.numStayWriteState             2397459                       # Number of times bus staying in WRITE state
system.mem_ctrl.readReqs                      2899056                       # Number of read requests accepted
system.mem_ctrl.writeReqs                     2537489                       # Number of write requests accepted
system.mem_ctrl.readBursts                    2899056                       # Number of controller read bursts, including those serviced by the write queue
system.mem_ctrl.writeBursts                   2537489                       # Number of controller write bursts, including those merged in the write queue
system.mem_ctrl.servicedByWrQ                      48                       # Number of controller read bursts serviced by the write queue
system.mem_ctrl.mergedWrBursts                      0                       # Number of controller write bursts merged with an existing one
system.mem_ctrl.neitherReadNorWriteReqs             0                       # Number of requests that are neither read nor write
system.mem_ctrl.avgRdQLen                        1.00                       # Average read queue length when enqueuing
system.mem_ctrl.avgWrQLen                       24.89                       # Average write queue length when enqueuing
system.mem_ctrl.numRdRetry                          0                       # Number of times read queue was full causing retry
system.mem_ctrl.numWrRetry                          0                       # Number of times write queue was full causing retry
system.mem_ctrl.readPktSize::0                      0                       # Read request sizes (log2)
system.mem_ctrl.readPktSize::1                      0                       # Read request sizes (log2)
system.mem_ctrl.readPktSize::2                      0                       # Read request sizes (log2)
system.mem_ctrl.readPktSize::3                      0                       # Read request sizes (log2)
system.mem_ctrl.readPktSize::4                      0                       # Read request sizes (log2)
system.mem_ctrl.readPktSize::5                      0                       # Read request sizes (log2)
system.mem_ctrl.readPktSize::6                2899056                       # Read request sizes (log2)
system.mem_ctrl.writePktSize::0                     0                       # Write request sizes (log2)
system.mem_ctrl.writePktSize::1                     0                       # Write request sizes (log2)
system.mem_ctrl.writePktSize::2                     0                       # Write request sizes (log2)
system.mem_ctrl.writePktSize::3                     0                       # Write request sizes (log2)
system.mem_ctrl.writePktSize::4                     0                       # Write request sizes (log2)
system.mem_ctrl.writePktSize::5                     0                       # Write request sizes (log2)
system.mem_ctrl.writePktSize::6               2537489                       # Write request sizes (log2)
system.mem_ctrl.rdQLenPdf::0                  2899005                       # What read queue length does an incoming req see
system.mem_ctrl.rdQLenPdf::1                        3                       # What read queue length does an incoming req see
system.mem_ctrl.rdQLenPdf::2                        0                       # What read queue length does an incoming req see
system.mem_ctrl.rdQLenPdf::3                        0                       # What read queue length does an incoming req see
system.mem_ctrl.rdQLenPdf::4                        0                       # What read queue length does an incoming req see
system.mem_ctrl.rdQLenPdf::5                        0                       # What read queue length does an incoming req see
system.mem_ctrl.rdQLenPdf::6                        0                       # What read queue length does an incoming req see
system.mem_ctrl.rdQLenPdf::7                        0                       # What read queue length does an incoming req see
system.mem_ctrl.rdQLenPdf::8                        0                       # What read queue length does an incoming req see
system.mem_ctrl.rdQLenPdf::9                        0                       # What read queue length does an incoming req see
system.mem_ctrl.rdQLenPdf::10                       0                       # What read queue length does an incoming req see
system.mem_ctrl.rdQLenPdf::11                       0                       # What read queue length does an incoming req see
system.mem_ctrl.rdQLenPdf::12                       0                       # What read queue length does an incoming req see
system.mem_ctrl.rdQLenPdf::13                       0                       # What read queue length does an incoming req see
system.mem_ctrl.rdQLenPdf::14                       0                       # What read queue length does an incoming req see
system.mem_ctrl.rdQLenPdf::15                       0                       # What read queue length does an incoming req see
system.mem_ctrl.rdQLenPdf::16                       0                       # What read queue length does an incoming req see
system.mem_ctrl.rdQLenPdf::17                       0                       # What read queue length does an incoming req see
system.mem_ctrl.rdQLenPdf::18                       0                       # What read queue length does an incoming req see
system.mem_ctrl.rdQLenPdf::19                       0                       # What read queue length does an incoming req see
system.mem_ctrl.rdQLenPdf::20                       0                       # What read queue length does an incoming req see
system.mem_ctrl.rdQLenPdf::21                       0                       # What read queue length does an incoming req see
system.mem_ctrl.rdQLenPdf::22                       0                       # What read queue length does an incoming req see
system.mem_ctrl.rdQLenPdf::23                       0                       # What read queue length does an incoming req see
system.mem_ctrl.rdQLenPdf::24                       0                       # What read queue length does an incoming req see
system.mem_ctrl.rdQLenPdf::25                       0                       # What read queue length does an incoming req see
system.mem_ctrl.rdQLenPdf::26                       0                       # What read queue length does an incoming req see
system.mem_ctrl.rdQLenPdf::27                       0                       # What read queue length does an incoming req see
system.mem_ctrl.rdQLenPdf::28                       0                       # What read queue length does an incoming req see
system.mem_ctrl.rdQLenPdf::29                       0                       # What read queue length does an incoming req see
system.mem_ctrl.rdQLenPdf::30                       0                       # What read queue length does an incoming req see
system.mem_ctrl.rdQLenPdf::31                       0                       # What read queue length does an incoming req see
system.mem_ctrl.wrQLenPdf::0                        1                       # What write queue length does an incoming req see
system.mem_ctrl.wrQLenPdf::1                        1                       # What write queue length does an incoming req see
system.mem_ctrl.wrQLenPdf::2                        1                       # What write queue length does an incoming req see
system.mem_ctrl.wrQLenPdf::3                        1                       # What write queue length does an incoming req see
system.mem_ctrl.wrQLenPdf::4                        1                       # What write queue length does an incoming req see
system.mem_ctrl.wrQLenPdf::5                        1                       # What write queue length does an incoming req see
system.mem_ctrl.wrQLenPdf::6                        1                       # What write queue length does an incoming req see
system.mem_ctrl.wrQLenPdf::7                        1                       # What write queue length does an incoming req see
system.mem_ctrl.wrQLenPdf::8                        1                       # What write queue length does an incoming req see
system.mem_ctrl.wrQLenPdf::9                        1                       # What write queue length does an incoming req see
system.mem_ctrl.wrQLenPdf::10                       1                       # What write queue length does an incoming req see
system.mem_ctrl.wrQLenPdf::11                       1                       # What write queue length does an incoming req see
system.mem_ctrl.wrQLenPdf::12                       1                       # What write queue length does an incoming req see
system.mem_ctrl.wrQLenPdf::13                       1                       # What write queue length does an incoming req see
system.mem_ctrl.wrQLenPdf::14                       1                       # What write queue length does an incoming req see
system.mem_ctrl.wrQLenPdf::15                  104803                       # What write queue length does an incoming req see
system.mem_ctrl.wrQLenPdf::16                  106399                       # What write queue length does an incoming req see
system.mem_ctrl.wrQLenPdf::17                  145044                       # What write queue length does an incoming req see
system.mem_ctrl.wrQLenPdf::18                  145397                       # What write queue length does an incoming req see
system.mem_ctrl.wrQLenPdf::19                  145453                       # What write queue length does an incoming req see
system.mem_ctrl.wrQLenPdf::20                  145418                       # What write queue length does an incoming req see
system.mem_ctrl.wrQLenPdf::21                  145590                       # What write queue length does an incoming req see
system.mem_ctrl.wrQLenPdf::22                  145394                       # What write queue length does an incoming req see
system.mem_ctrl.wrQLenPdf::23                  145663                       # What write queue length does an incoming req see
system.mem_ctrl.wrQLenPdf::24                  145732                       # What write queue length does an incoming req see
system.mem_ctrl.wrQLenPdf::25                  145328                       # What write queue length does an incoming req see
system.mem_ctrl.wrQLenPdf::26                  145322                       # What write queue length does an incoming req see
system.mem_ctrl.wrQLenPdf::27                  145319                       # What write queue length does an incoming req see
system.mem_ctrl.wrQLenPdf::28                  145325                       # What write queue length does an incoming req see
system.mem_ctrl.wrQLenPdf::29                  145321                       # What write queue length does an incoming req see
system.mem_ctrl.wrQLenPdf::30                  145318                       # What write queue length does an incoming req see
system.mem_ctrl.wrQLenPdf::31                  145320                       # What write queue length does an incoming req see
system.mem_ctrl.wrQLenPdf::32                  145318                       # What write queue length does an incoming req see
system.mem_ctrl.wrQLenPdf::33                      10                       # What write queue length does an incoming req see
system.mem_ctrl.wrQLenPdf::34                       0                       # What write queue length does an incoming req see
system.mem_ctrl.wrQLenPdf::35                       0                       # What write queue length does an incoming req see
system.mem_ctrl.wrQLenPdf::36                       0                       # What write queue length does an incoming req see
system.mem_ctrl.wrQLenPdf::37                       0                       # What write queue length does an incoming req see
system.mem_ctrl.wrQLenPdf::38                       0                       # What write queue length does an incoming req see
system.mem_ctrl.wrQLenPdf::39                       0                       # What write queue length does an incoming req see
system.mem_ctrl.wrQLenPdf::40                       0                       # What write queue length does an incoming req see
system.mem_ctrl.wrQLenPdf::41                       0                       # What write queue length does an incoming req see
system.mem_ctrl.wrQLenPdf::42                       0                       # What write queue length does an incoming req see
system.mem_ctrl.wrQLenPdf::43                       0                       # What write queue length does an incoming req see
system.mem_ctrl.wrQLenPdf::44                       0                       # What write queue length does an incoming req see
system.mem_ctrl.wrQLenPdf::45                       0                       # What write queue length does an incoming req see
system.mem_ctrl.wrQLenPdf::46                       0                       # What write queue length does an incoming req see
system.mem_ctrl.wrQLenPdf::47                       0                       # What write queue length does an incoming req see
system.mem_ctrl.wrQLenPdf::48                       0                       # What write queue length does an incoming req see
system.mem_ctrl.wrQLenPdf::49                       0                       # What write queue length does an incoming req see
system.mem_ctrl.wrQLenPdf::50                       0                       # What write queue length does an incoming req see
system.mem_ctrl.wrQLenPdf::51                       0                       # What write queue length does an incoming req see
system.mem_ctrl.wrQLenPdf::52                       0                       # What write queue length does an incoming req see
system.mem_ctrl.wrQLenPdf::53                       0                       # What write queue length does an incoming req see
system.mem_ctrl.wrQLenPdf::54                       0                       # What write queue length does an incoming req see
system.mem_ctrl.wrQLenPdf::55                       0                       # What write queue length does an incoming req see
system.mem_ctrl.wrQLenPdf::56                       0                       # What write queue length does an incoming req see
system.mem_ctrl.wrQLenPdf::57                       0                       # What write queue length does an incoming req see
system.mem_ctrl.wrQLenPdf::58                       0                       # What write queue length does an incoming req see
system.mem_ctrl.wrQLenPdf::59                       0                       # What write queue length does an incoming req see
system.mem_ctrl.wrQLenPdf::60                       0                       # What write queue length does an incoming req see
system.mem_ctrl.wrQLenPdf::61                       0                       # What write queue length does an incoming req see
system.mem_ctrl.wrQLenPdf::62                       0                       # What write queue length does an incoming req see
system.mem_ctrl.wrQLenPdf::63                       0                       # What write queue length does an incoming req see
system.mem_ctrl.rdPerTurnAround::samples       145317                       # Reads before turning the bus around for writes
system.mem_ctrl.rdPerTurnAround::mean       19.949442                       # Reads before turning the bus around for writes
system.mem_ctrl.rdPerTurnAround::gmean      19.145795                       # Reads before turning the bus around for writes
system.mem_ctrl.rdPerTurnAround::stdev      43.517146                       # Reads before turning the bus around for writes
system.mem_ctrl.rdPerTurnAround::0-511         145307     99.99%     99.99% # Reads before turning the bus around for writes
system.mem_ctrl.rdPerTurnAround::512-1023            9      0.01%    100.00% # Reads before turning the bus around for writes
system.mem_ctrl.rdPerTurnAround::15872-16383            1      0.00%    100.00% # Reads before turning the bus around for writes
system.mem_ctrl.rdPerTurnAround::total         145317                       # Reads before turning the bus around for writes
system.mem_ctrl.wrPerTurnAround::samples       145317                       # Writes before turning the bus around for reads
system.mem_ctrl.wrPerTurnAround::mean       17.461536                       # Writes before turning the bus around for reads
system.mem_ctrl.wrPerTurnAround::gmean      17.437696                       # Writes before turning the bus around for reads
system.mem_ctrl.wrPerTurnAround::stdev       0.896792                       # Writes before turning the bus around for reads
system.mem_ctrl.wrPerTurnAround::16             39055     26.88%     26.88% # Writes before turning the bus around for reads
system.mem_ctrl.wrPerTurnAround::17              1453      1.00%     27.88% # Writes before turning the bus around for reads
system.mem_ctrl.wrPerTurnAround::18            103501     71.22%     99.10% # Writes before turning the bus around for reads
system.mem_ctrl.wrPerTurnAround::19              1301      0.90%    100.00% # Writes before turning the bus around for reads
system.mem_ctrl.wrPerTurnAround::20                 7      0.00%    100.00% # Writes before turning the bus around for reads
system.mem_ctrl.wrPerTurnAround::total         145317                       # Writes before turning the bus around for reads
system.mem_ctrl.bytesReadWrQ                     3072                       # Total number of bytes read from write queue
system.mem_ctrl.bytesReadSys                185539584                       # Total read bytes from the system interface side
system.mem_ctrl.bytesWrittenSys             162399296                       # Total written bytes from the system interface side
system.mem_ctrl.avgRdBWSys                      70.92                       # Average system read bandwidth in MiByte/s
system.mem_ctrl.avgWrBWSys                      62.07                       # Average system write bandwidth in MiByte/s
system.mem_ctrl.totGap                   2616359767000                       # Total gap between requests
system.mem_ctrl.avgGap                      481254.14                       # Average gap between requests
system.mem_ctrl.requestorReadBytes::.cpu.inst       326976                       # Per-requestor bytes read from memory
[...]
system.mem_ctrl.requestorReadRate::.cpu.data 70789016.124918684363                       # Per-requestor bytes read from memory rate (Bytes/sec)
system.mem_ctrl.requestorWriteRate::.writebacks 62069946.213846407831                       # Per-requestor bytes write to memory rate (Bytes/sec)
system.mem_ctrl.requestorReadAccesses::.cpu.inst         5109                       # Per-requestor read serviced memory accesses
system.mem_ctrl.requestorReadAccesses::.cpu.data      2893947                       # Per-requestor read serviced memory accesses
system.mem_ctrl.requestorWriteAccesses::.writebacks      2537489                       # Per-requestor write serviced memory accesses
system.mem_ctrl.requestorReadTotalLat::.cpu.inst    160710000                       # Per-requestor read total memory access latency
system.mem_ctrl.requestorReadTotalLat::.cpu.data  82692433500                       # Per-requestor read total memory access latency
system.mem_ctrl.requestorWriteTotalLat::.writebacks 62589833387250                       # Per-requestor write total memory access latency
system.mem_ctrl.requestorReadAvgLat::.cpu.inst     31456.25                       # Per-requestor read average memory access latency
system.mem_ctrl.requestorReadAvgLat::.cpu.data     28574.27                       # Per-requestor read average memory access latency
system.mem_ctrl.requestorWriteAvgLat::.writebacks  24666051.12                       # Per-requestor write average memory access latency
system.mem_ctrl.dram.bytes_read::.cpu.inst       326976                       # Number of bytes read from this memory
system.mem_ctrl.dram.bytes_read::.cpu.data    185212608                       # Number of bytes read from this memory
system.mem_ctrl.dram.bytes_read::total      185539584                       # Number of bytes read from this memory
system.mem_ctrl.dram.bytes_inst_read::.cpu.inst       326976                       # Number of instructions bytes read from this memory
system.mem_ctrl.dram.bytes_inst_read::total       326976                       # Number of instructions bytes read from this memory
system.mem_ctrl.dram.bytes_written::.writebacks    162399296                       # Number of bytes written to this memory
system.mem_ctrl.dram.bytes_written::total    162399296                       # Number of bytes written to this memory
system.mem_ctrl.dram.num_reads::.cpu.inst         5109                       # Number of read requests responded to by this memory
system.mem_ctrl.dram.num_reads::.cpu.data      2893947                       # Number of read requests responded to by this memory
system.mem_ctrl.dram.num_reads::total         2899056                       # Number of read requests responded to by this memory
system.mem_ctrl.dram.num_writes::.writebacks      2537489                       # Number of write requests responded to by this memory
system.mem_ctrl.dram.num_writes::total        2537489                       # Number of write requests responded to by this memory
system.mem_ctrl.dram.bw_read::.cpu.inst        124974                       # Total read bandwidth from this memory (bytes/s)
system.mem_ctrl.dram.bw_read::.cpu.data      70790190                       # Total read bandwidth from this memory (bytes/s)
system.mem_ctrl.dram.bw_read::total          70915164                       # Total read bandwidth from this memory (bytes/s)
system.mem_ctrl.dram.bw_inst_read::.cpu.inst       124974                       # Instruction read bandwidth from this memory (bytes/s)
system.mem_ctrl.dram.bw_inst_read::total       124974                       # Instruction read bandwidth from this memory (bytes/s)
system.mem_ctrl.dram.bw_write::.writebacks     62070705                       # Write bandwidth from this memory (bytes/s)
system.mem_ctrl.dram.bw_write::total         62070705                       # Write bandwidth from this memory (bytes/s)
system.mem_ctrl.dram.bw_total::.writebacks     62070705                       # Total bandwidth to/from this memory (bytes/s)
system.mem_ctrl.dram.bw_total::.cpu.inst       124974                       # Total bandwidth to/from this memory (bytes/s)
system.mem_ctrl.dram.bw_total::.cpu.data     70790190                       # Total bandwidth to/from this memory (bytes/s)
system.mem_ctrl.dram.bw_total::total        132985868                       # Total bandwidth to/from this memory (bytes/s)
system.mem_ctrl.dram.readBursts               2899008                       # Number of DRAM read bursts
system.mem_ctrl.dram.writeBursts              2537458                       # Number of DRAM write bursts
system.mem_ctrl.dram.perBankRdBursts::0        184260                       # Per bank write bursts
system.mem_ctrl.dram.perBankRdBursts::1        184143                       # Per bank write bursts
system.mem_ctrl.dram.perBankRdBursts::2        183933                       # Per bank write bursts
system.mem_ctrl.dram.perBankRdBursts::3        182344                       # Per bank write bursts
system.mem_ctrl.dram.perBankRdBursts::4        179213                       # Per bank write bursts
system.mem_ctrl.dram.perBankRdBursts::5        176351                       # Per bank write bursts
system.mem_ctrl.dram.perBankRdBursts::6        180787                       # Per bank write bursts
system.mem_ctrl.dram.perBankRdBursts::7        182667                       # Per bank write bursts
system.mem_ctrl.dram.perBankRdBursts::8        182119                       # Per bank write bursts
system.mem_ctrl.dram.perBankRdBursts::9        181386                       # Per bank write bursts
system.mem_ctrl.dram.perBankRdBursts::10       181563                       # Per bank write bursts
system.mem_ctrl.dram.perBankRdBursts::11       181158                       # Per bank write bursts
system.mem_ctrl.dram.perBankRdBursts::12       176779                       # Per bank write bursts
system.mem_ctrl.dram.perBankRdBursts::13       176057                       # Per bank write bursts
system.mem_ctrl.dram.perBankRdBursts::14       182110                       # Per bank write bursts
system.mem_ctrl.dram.perBankRdBursts::15       184138                       # Per bank write bursts
system.mem_ctrl.dram.perBankWrBursts::0        160691                       # Per bank write bursts
system.mem_ctrl.dram.perBankWrBursts::1        160657                       # Per bank write bursts
system.mem_ctrl.dram.perBankWrBursts::2        160727                       # Per bank write bursts
system.mem_ctrl.dram.perBankWrBursts::3        159861                       # Per bank write bursts
system.mem_ctrl.dram.perBankWrBursts::4        157259                       # Per bank write bursts
system.mem_ctrl.dram.perBankWrBursts::5        154728                       # Per bank write bursts
system.mem_ctrl.dram.perBankWrBursts::6        158388                       # Per bank write bursts
system.mem_ctrl.dram.perBankWrBursts::7        160017                       # Per bank write bursts
system.mem_ctrl.dram.perBankWrBursts::8        159812                       # Per bank write bursts
system.mem_ctrl.dram.perBankWrBursts::9        158900                       # Per bank write bursts
system.mem_ctrl.dram.perBankWrBursts::10       158974                       # Per bank write bursts
system.mem_ctrl.dram.perBankWrBursts::11       158542                       # Per bank write bursts
system.mem_ctrl.dram.perBankWrBursts::12       155008                       # Per bank write bursts
system.mem_ctrl.dram.perBankWrBursts::13       154337                       # Per bank write bursts
system.mem_ctrl.dram.perBankWrBursts::14       158863                       # Per bank write bursts
system.mem_ctrl.dram.perBankWrBursts::15       160694                       # Per bank write bursts
system.mem_ctrl.dram.totQLat              28496743500                       # Total ticks spent queuing
system.mem_ctrl.dram.totBusLat            14495040000                       # Total ticks spent in databus transfers
system.mem_ctrl.dram.totMemAccLat         82853143500                       # Total ticks spent from burst creation until serviced by the DRAM
system.mem_ctrl.dram.avgQLat                  9829.83                       # Average queueing delay per DRAM burst
system.mem_ctrl.dram.avgBusLat                5000.00                       # Average bus latency per DRAM burst
system.mem_ctrl.dram.avgMemAccLat            28579.83                       # Average memory access latency per DRAM burst
system.mem_ctrl.dram.readRowHits              2379501                       # Number of row buffer hits during reads
system.mem_ctrl.dram.writeRowHits             2186362                       # Number of row buffer hits during writes
system.mem_ctrl.dram.readRowHitRate             82.08                       # Row buffer hit rate for reads
system.mem_ctrl.dram.writeRowHitRate            86.16                       # Row buffer hit rate for writes
system.mem_ctrl.dram.bytesPerActivate::samples       870601                       # Bytes accessed per row activation
system.mem_ctrl.dram.bytesPerActivate::mean   399.647637                       # Bytes accessed per row activation
system.mem_ctrl.dram.bytesPerActivate::gmean   275.967998                       # Bytes accessed per row activation
system.mem_ctrl.dram.bytesPerActivate::stdev   312.196149                       # Bytes accessed per row activation
system.mem_ctrl.dram.bytesPerActivate::0-127       149051     17.12%     17.12% # Bytes accessed per row activation
system.mem_ctrl.dram.bytesPerActivate::128-255       202956     23.31%     40.43% # Bytes accessed per row activation
system.mem_ctrl.dram.bytesPerActivate::256-383        97944     11.25%     51.68% # Bytes accessed per row activation
system.mem_ctrl.dram.bytesPerActivate::384-511       105649     12.14%     63.82% # Bytes accessed per row activation
system.mem_ctrl.dram.bytesPerActivate::512-639       130593     15.00%     78.82% # Bytes accessed per row activation
system.mem_ctrl.dram.bytesPerActivate::640-767        36704      4.22%     83.03% # Bytes accessed per row activation
system.mem_ctrl.dram.bytesPerActivate::768-895        27372      3.14%     86.18% # Bytes accessed per row activation
system.mem_ctrl.dram.bytesPerActivate::896-1023        24649      2.83%     89.01% # Bytes accessed per row activation
system.mem_ctrl.dram.bytesPerActivate::1024-1151        95683     10.99%    100.00% # Bytes accessed per row activation
system.mem_ctrl.dram.bytesPerActivate::total       870601                       # Bytes accessed per row activation
system.mem_ctrl.dram.bytesRead              185536512                       # Total number of bytes read from DRAM
system.mem_ctrl.dram.bytesWritten           162397312                       # Total number of bytes written to DRAM
system.mem_ctrl.dram.avgRdBW                70.913990                       # Average DRAM read bandwidth in MiBytes/s
system.mem_ctrl.dram.avgWrBW                62.069946                       # Average DRAM write bandwidth in MiBytes/s
system.mem_ctrl.dram.peakBW                  12800.00                       # Theoretical peak bandwidth in MiByte/s
system.mem_ctrl.dram.busUtil                     1.04                       # Data bus utilization in percentage
system.mem_ctrl.dram.busUtilRead                 0.55                       # Data bus utilization in percentage for reads
system.mem_ctrl.dram.busUtilWrite                0.48                       # Data bus utilization in percentage for writes
system.mem_ctrl.dram.pageHitRate                83.99                       # Row buffer hit rate, read and write combined
system.mem_ctrl.dram.power_state.pwrStateResidencyTicks::UNDEFINED 2616359799000                       # Cumulative time (in ticks) in various power states
system.mem_ctrl.dram.rank0.actEnergy       3123435840                       # Energy for activate commands per rank (pJ)
system.mem_ctrl.dram.rank0.preEnergy       1660141725                       # Energy for precharge commands per rank (pJ)
system.mem_ctrl.dram.rank0.readEnergy     10379403720                       # Energy for read commands per rank (pJ)
system.mem_ctrl.dram.rank0.writeEnergy     6641552160                       # Energy for write commands per rank (pJ)
system.mem_ctrl.dram.rank0.refreshEnergy 206533176720.000031                       # Energy for refresh commands per rank (pJ)
system.mem_ctrl.dram.rank0.actBackEnergy 293553581880                       # Energy for active background per rank (pJ)
system.mem_ctrl.dram.rank0.preBackEnergy 757479146880                       # Energy for precharge background per rank (pJ)
system.mem_ctrl.dram.rank0.actPowerDownEnergy            0                       # Energy for active power-down per rank (pJ)
system.mem_ctrl.dram.rank0.prePowerDownEnergy            0                       # Energy for precharge power-down per rank (pJ)
system.mem_ctrl.dram.rank0.selfRefreshEnergy            0                       # Energy for self refresh per rank (pJ)
system.mem_ctrl.dram.rank0.totalEnergy   1279370438925                       # Total energy per rank (pJ)
system.mem_ctrl.dram.rank0.averagePower    488.988724                       # Core power per rank (mW)
system.mem_ctrl.dram.rank0.totalIdleTime            0                       # Total Idle time Per DRAM Rank
system.mem_ctrl.dram.rank0.pwrStateTime::IDLE 1964972967750                       # Time in different power states
system.mem_ctrl.dram.rank0.pwrStateTime::REF  87365980000                       # Time in different power states
system.mem_ctrl.dram.rank0.pwrStateTime::SREF            0                       # Time in different power states
system.mem_ctrl.dram.rank0.pwrStateTime::PRE_PDN            0                       # Time in different power states
system.mem_ctrl.dram.rank0.pwrStateTime::ACT 564020851250                       # Time in different power states
system.mem_ctrl.dram.rank0.pwrStateTime::ACT_PDN            0                       # Time in different power states
system.mem_ctrl.dram.rank1.actEnergy       3092669580                       # Energy for activate commands per rank (pJ)
system.mem_ctrl.dram.rank1.preEnergy       1643789070                       # Energy for precharge commands per rank (pJ)
system.mem_ctrl.dram.rank1.readEnergy     10319513400                       # Energy for read commands per rank (pJ)
system.mem_ctrl.dram.rank1.writeEnergy     6603978600                       # Energy for write commands per rank (pJ)
system.mem_ctrl.dram.rank1.refreshEnergy 206533176720.000031                       # Energy for refresh commands per rank (pJ)
system.mem_ctrl.dram.rank1.actBackEnergy 293033232870                       # Energy for active background per rank (pJ)
system.mem_ctrl.dram.rank1.preBackEnergy 757917335520                       # Energy for precharge background per rank (pJ)
system.mem_ctrl.dram.rank1.actPowerDownEnergy            0                       # Energy for active power-down per rank (pJ)
system.mem_ctrl.dram.rank1.prePowerDownEnergy            0                       # Energy for precharge power-down per rank (pJ)
system.mem_ctrl.dram.rank1.selfRefreshEnergy            0                       # Energy for self refresh per rank (pJ)
system.mem_ctrl.dram.rank1.totalEnergy   1279143695760                       # Total energy per rank (pJ)
system.mem_ctrl.dram.rank1.averagePower    488.902060                       # Core power per rank (mW)
system.mem_ctrl.dram.rank1.totalIdleTime            0                       # Total Idle time Per DRAM Rank
system.mem_ctrl.dram.rank1.pwrStateTime::IDLE 1966176756250                       # Time in different power states
system.mem_ctrl.dram.rank1.pwrStateTime::REF  87365980000                       # Time in different power states
system.mem_ctrl.dram.rank1.pwrStateTime::SREF            0                       # Time in different power states
system.mem_ctrl.dram.rank1.pwrStateTime::PRE_PDN            0                       # Time in different power states
system.mem_ctrl.dram.rank1.pwrStateTime::ACT 562817062750                       # Time in different power states
system.mem_ctrl.dram.rank1.pwrStateTime::ACT_PDN            0                       # Time in different power states
system.mem_ctrl.power_state.pwrStateResidencyTicks::UNDEFINED 2616359799000                       # Cumulative time (in ticks) in various power states
system.membus.trans_dist::ReadResp            2180841                       # Transaction distribution
system.membus.trans_dist::WritebackDirty      2537489                       # Transaction distribution
system.membus.trans_dist::CleanEvict           345163                       # Transaction distribution
system.membus.trans_dist::ReadExReq            718215                       # Transaction distribution
system.membus.trans_dist::ReadExResp           718215                       # Transaction distribution
system.membus.trans_dist::ReadSharedReq       2180841                       # Transaction distribution
system.membus.pkt_count_system.l2cache.mem_side_port::system.mem_ctrl.port      8680764                       # Packet count per connected requestor and responder (bytes)
system.membus.pkt_count_system.l2cache.mem_side_port::total      8680764                       # Packet count per connected requestor and responder (bytes)
system.membus.pkt_count::total                8680764                       # Packet count per connected requestor and responder (bytes)
system.membus.pkt_size_system.l2cache.mem_side_port::system.mem_ctrl.port    347938880                       # Cumulative packet size per connected requestor and responder (bytes)
system.membus.pkt_size_system.l2cache.mem_side_port::total    347938880                       # Cumulative packet size per connected requestor and responder (bytes)
system.membus.pkt_size::total               347938880                       # Cumulative packet size per connected requestor and responder (bytes)
system.membus.snoops                                0                       # Total snoops (count)
system.membus.snoopTraffic                          0                       # Total snoop traffic (bytes)
system.membus.snoop_fanout::samples           2899056                       # Request fanout histogram
system.membus.snoop_fanout::mean                    0                       # Request fanout histogram
system.membus.snoop_fanout::stdev                   0                       # Request fanout histogram
system.membus.snoop_fanout::underflows              0      0.00%      0.00% # Request fanout histogram
system.membus.snoop_fanout::0                 2899056    100.00%    100.00% # Request fanout histogram
system.membus.snoop_fanout::1                       0      0.00%    100.00% # Request fanout histogram
system.membus.snoop_fanout::overflows               0      0.00%    100.00% # Request fanout histogram
system.membus.snoop_fanout::min_value               0                       # Request fanout histogram
system.membus.snoop_fanout::max_value               0                       # Request fanout histogram
system.membus.snoop_fanout::total             2899056                       # Request fanout histogram
system.membus.power_state.pwrStateResidencyTicks::UNDEFINED 2616359799000                       # Cumulative time (in ticks) in various power states
system.membus.reqLayer2.occupancy         15931664000                       # Layer occupancy (ticks)
system.membus.reqLayer2.utilization               0.6                       # Layer utilization (%)
system.membus.respLayer0.occupancy        15368442000                       # Layer occupancy (ticks)
system.membus.respLayer0.utilization              0.6                       # Layer utilization (%)

---------- End Simulation Statistics   ----------
