
---------- Begin Simulation Statistics ----------
final_tick                                16240390000                       # Number of ticks from beginning of simulation (restored from checkpoints and never reset)
host_inst_rate                                  56993                       # Simulator instruction rate (inst/s)
host_mem_usage                                 647136                       # Number of bytes of host memory used
host_op_rate                                   101501                       # Simulator op (including micro ops) rate (op/s)
host_seconds                                   112.98                       # Real time elapsed on the host
host_tick_rate                              143749255                       # Simulator tick rate (ticks/s)
sim_freq                                 1000000000000                       # Frequency of simulated ticks
sim_insts                                     6438899                       # Number of instructions simulated
sim_ops                                      11467340                       # Number of ops (including micro ops) simulated
sim_seconds                                  0.016240                       # Number of seconds simulated
sim_ticks                                 16240390000                       # Number of ticks simulated
system.cpu.cc_regfile_reads                   7124417                       # number of cc regfile reads
system.cpu.cc_regfile_writes                  4091080                       # number of cc regfile writes
system.cpu.committedInsts                     6438899                       # Number of Instructions Simulated
system.cpu.committedOps                      11467340                       # Number of Ops (including micro ops) Simulated
system.cpu.cpi                               2.522231                       # CPI: Cycles Per Instruction
system.cpu.cpi_total                         2.522231                       # CPI: Total CPI of All Threads
system.cpu.fp_regfile_reads                      1752                       # number of floating regfile reads
system.cpu.fp_regfile_writes                      807                       # number of floating regfile writes
system.cpu.idleCycles                           21019                       # Total number of cycles that the CPU has spent unscheduled due to idling
system.cpu.iew.branchMispredicts                  982                       # Number of branch mispredicts detected at execute
system.cpu.iew.exec_branches                  1285070                       # Number of branches executed
system.cpu.iew.exec_nop                             0                       # number of nop insts executed
system.cpu.iew.exec_rate                     0.725231                       # Inst execution rate
system.cpu.iew.exec_refs                      2256589                       # number of memory reference insts executed
system.cpu.iew.exec_stores                    1040454                       # Number of stores executed
system.cpu.iew.exec_swp                             0                       # number of swp insts executed
system.cpu.iew.iewBlockCycles                 6558998                       # Number of cycles IEW is blocking
system.cpu.iew.iewDispLoadInsts               1216864                       # Number of dispatched load instructions
system.cpu.iew.iewDispNonSpecInsts                  3                       # Number of dispatched non-speculative instructions
system.cpu.iew.iewDispSquashedInsts                44                       # Number of squashed instructions skipped by dispatch
system.cpu.iew.iewDispStoreInsts              1040938                       # Number of dispatched store instructions
system.cpu.iew.iewDispatchedInsts            11784496                       # Number of instructions dispatched to IQ
system.cpu.iew.iewExecLoadInsts               1216135                       # Number of load instructions executed
system.cpu.iew.iewExecSquashedInsts              1550                       # Number of squashed instructions skipped in execute
system.cpu.iew.iewExecutedInsts              11778039                       # Number of executed instructions
system.cpu.iew.iewIQFullEvents                     33                       # Number of times the IQ has become full, causing a stall
system.cpu.iew.iewIdleCycles                        0                       # Number of cycles IEW is idle
system.cpu.iew.iewLSQFullEvents                  4029                       # Number of times the LSQ has become full, causing a stall
system.cpu.iew.iewSquashCycles                   2431                       # Number of cycles IEW is squashing
system.cpu.iew.iewUnblockCycles                 34900                       # Number of cycles IEW is unblocking
system.cpu.iew.memOrderViolationEvents             12                       # Number of memory order violations
system.cpu.iew.predictedNotTakenIncorrect          885                       # Number of branches that were predicted not taken incorrectly
system.cpu.iew.predictedTakenIncorrect             97                       # Number of branches that were predicted taken incorrectly
system.cpu.iew.wb_consumers                  13271428                       # num instructions consuming a value
system.cpu.iew.wb_count                      11775375                       # cumulative count of insts written-back
system.cpu.iew.wb_fanout                     0.602163                       # average fanout of values written-back
system.cpu.iew.wb_producers                   7991569                       # num instructions producing a value
system.cpu.iew.wb_rate                       0.725067                       # insts written-back per cycle
system.cpu.iew.wb_sent                       11777421                       # cumulative count of insts sent to commit
system.cpu.int_regfile_reads                 18001220                       # number of integer regfile reads
system.cpu.int_regfile_writes                 9383140                       # number of integer regfile writes
system.cpu.ipc                               0.396474                       # IPC: Instructions Per Cycle
system.cpu.ipc_total                         0.396474                       # IPC: Total IPC of All Threads
system.cpu.iq.FU_type_0::No_OpClass             35105      0.30%      0.30% # Type of FU issued
system.cpu.iq.FU_type_0::IntAlu               9486750     80.54%     80.83% # Type of FU issued
system.cpu.iq.FU_type_0::IntMult                    6      0.00%     80.83% # Type of FU issued
system.cpu.iq.FU_type_0::IntDiv                    28      0.00%     80.83% # Type of FU issued
system.cpu.iq.FU_type_0::FloatAdd                 136      0.00%     80.83% # Type of FU issued
system.cpu.iq.FU_type_0::FloatCmp                   0      0.00%     80.83% # Type of FU issued
system.cpu.iq.FU_type_0::FloatCvt                   0      0.00%     80.83% # Type of FU issued
system.cpu.iq.FU_type_0::FloatMult                  0      0.00%     80.83% # Type of FU issued
system.cpu.iq.FU_type_0::FloatMultAcc               0      0.00%     80.83% # Type of FU issued
system.cpu.iq.FU_type_0::FloatDiv                   0      0.00%     80.83% # Type of FU issued
system.cpu.iq.FU_type_0::FloatMisc                  0      0.00%     80.83% # Type of FU issued
system.cpu.iq.FU_type_0::FloatSqrt                  0      0.00%     80.83% # Type of FU issued
system.cpu.iq.FU_type_0::SimdAdd                    0      0.00%     80.83% # Type of FU issued
system.cpu.iq.FU_type_0::SimdAddAcc                 0      0.00%     80.83% # Type of FU issued
system.cpu.iq.FU_type_0::SimdAlu                  162      0.00%     80.84% # Type of FU issued
system.cpu.iq.FU_type_0::SimdCmp                   12      0.00%     80.84% # Type of FU issued
system.cpu.iq.FU_type_0::SimdCvt                   84      0.00%     80.84% # Type of FU issued
system.cpu.iq.FU_type_0::SimdMisc                 252      0.00%     80.84% # Type of FU issued
system.cpu.iq.FU_type_0::SimdMult                   0      0.00%     80.84% # Type of FU issued
system.cpu.iq.FU_type_0::SimdMultAcc                0      0.00%     80.84% # Type of FU issued
system.cpu.iq.FU_type_0::SimdShift                  0      0.00%     80.84% # Type of FU issued
system.cpu.iq.FU_type_0::SimdShiftAcc               0      0.00%     80.84% # Type of FU issued
system.cpu.iq.FU_type_0::SimdDiv                    0      0.00%     80.84% # Type of FU issued
system.cpu.iq.FU_type_0::SimdSqrt                   0      0.00%     80.84% # Type of FU issued
system.cpu.iq.FU_type_0::SimdFloatAdd               0      0.00%     80.84% # Type of FU issued
system.cpu.iq.FU_type_0::SimdFloatAlu               0      0.00%     80.84% # Type of FU issued
system.cpu.iq.FU_type_0::SimdFloatCmp               0      0.00%     80.84% # Type of FU issued
system.cpu.iq.FU_type_0::SimdFloatCvt               0      0.00%     80.84% # Type of FU issued
system.cpu.iq.FU_type_0::SimdFloatDiv               0      0.00%     80.84% # Type of FU issued
system.cpu.iq.FU_type_0::SimdFloatMisc              0      0.00%     80.84% # Type of FU issued
system.cpu.iq.FU_type_0::SimdFloatMult              0      0.00%     80.84% # Type of FU issued
system.cpu.iq.FU_type_0::SimdFloatMultAcc            0      0.00%     80.84% # Type of FU issued
system.cpu.iq.FU_type_0::SimdFloatSqrt              0      0.00%     80.84% # Type of FU issued
system.cpu.iq.FU_type_0::SimdReduceAdd              0      0.00%     80.84% # Type of FU issued
system.cpu.iq.FU_type_0::SimdReduceAlu              0      0.00%     80.84% # Type of FU issued
system.cpu.iq.FU_type_0::SimdReduceCmp              0      0.00%     80.84% # Type of FU issued
system.cpu.iq.FU_type_0::SimdFloatReduceAdd            0      0.00%     80.84% # Type of FU issued
system.cpu.iq.FU_type_0::SimdFloatReduceCmp            0      0.00%     80.84% # Type of FU issued
system.cpu.iq.FU_type_0::SimdAes                    0      0.00%     80.84% # Type of FU issued
system.cpu.iq.FU_type_0::SimdAesMix                 0      0.00%     80.84% # Type of FU issued
system.cpu.iq.FU_type_0::SimdSha1Hash               0      0.00%     80.84% # Type of FU issued
system.cpu.iq.FU_type_0::SimdSha1Hash2              0      0.00%     80.84% # Type of FU issued
system.cpu.iq.FU_type_0::SimdSha256Hash             0      0.00%     80.84% # Type of FU issued
system.cpu.iq.FU_type_0::SimdSha256Hash2            0      0.00%     80.84% # Type of FU issued
system.cpu.iq.FU_type_0::SimdShaSigma2              0      0.00%     80.84% # Type of FU issued
system.cpu.iq.FU_type_0::SimdShaSigma3              0      0.00%     80.84% # Type of FU issued
system.cpu.iq.FU_type_0::SimdPredAlu                0      0.00%     80.84% # Type of FU issued
system.cpu.iq.FU_type_0::MemRead              1216359     10.33%     91.17% # Type of FU issued
system.cpu.iq.FU_type_0::MemWrite             1040046      8.83%     99.99% # Type of FU issued
system.cpu.iq.FU_type_0::FloatMemRead             104      0.00%    100.00% # Type of FU issued
system.cpu.iq.FU_type_0::FloatMemWrite            545      0.00%    100.00% # Type of FU issued
system.cpu.iq.FU_type_0::IprAccess                  0      0.00%    100.00% # Type of FU issued
system.cpu.iq.FU_type_0::InstPrefetch               0      0.00%    100.00% # Type of FU issued
system.cpu.iq.FU_type_0::total               11779589                       # Type of FU issued
system.cpu.iq.fp_alu_accesses                    1494                       # Number of floating point alu accesses
system.cpu.iq.fp_inst_queue_reads                2952                       # Number of floating instruction queue reads
system.cpu.iq.fp_inst_queue_wakeup_accesses         1416                       # Number of floating instruction queue wakeup accesses
system.cpu.iq.fp_inst_queue_writes               1737                       # Number of floating instruction queue writes
system.cpu.iq.fu_busy_cnt                      234585                       # FU busy when requested
system.cpu.iq.fu_busy_rate                   0.019915                       # FU busy rate (busy events/executed inst)
system.cpu.iq.fu_full::No_OpClass                   0      0.00%      0.00% # attempts to use FU when none available
system.cpu.iq.fu_full::IntAlu                  228352     97.34%     97.34% # attempts to use FU when none available
system.cpu.iq.fu_full::IntMult                      0      0.00%     97.34% # attempts to use FU when none available
system.cpu.iq.fu_full::IntDiv                       0      0.00%     97.34% # attempts to use FU when none available
system.cpu.iq.fu_full::FloatAdd                     0      0.00%     97.34% # attempts to use FU when none available
system.cpu.iq.fu_full::FloatCmp                     0      0.00%     97.34% # attempts to use FU when none available
system.cpu.iq.fu_full::FloatCvt                     0      0.00%     97.34% # attempts to use FU when none available
system.cpu.iq.fu_full::FloatMult                    0      0.00%     97.34% # attempts to use FU when none available
system.cpu.iq.fu_full::FloatMultAcc                 0      0.00%     97.34% # attempts to use FU when none available
system.cpu.iq.fu_full::FloatDiv                     0      0.00%     97.34% # attempts to use FU when none available
system.cpu.iq.fu_full::FloatMisc                    0      0.00%     97.34% # attempts to use FU when none available
system.cpu.iq.fu_full::FloatSqrt                    0      0.00%     97.34% # attempts to use FU when none available
system.cpu.iq.fu_full::SimdAdd                      0      0.00%     97.34% # attempts to use FU when none available
system.cpu.iq.fu_full::SimdAddAcc                   0      0.00%     97.34% # attempts to use FU when none available
system.cpu.iq.fu_full::SimdAlu                     10      0.00%     97.35% # attempts to use FU when none available
system.cpu.iq.fu_full::SimdCmp                      0      0.00%     97.35% # attempts to use FU when none available
system.cpu.iq.fu_full::SimdCvt                      5      0.00%     97.35% # attempts to use FU when none available
system.cpu.iq.fu_full::SimdMisc                     5      0.00%     97.35% # attempts to use FU when none available
system.cpu.iq.fu_full::SimdMult                     0      0.00%     97.35% # attempts to use FU when none available
system.cpu.iq.fu_full::SimdMultAcc                  0      0.00%     97.35% # attempts to use FU when none available
system.cpu.iq.fu_full::SimdShift                    0      0.00%     97.35% # attempts to use FU when none available
system.cpu.iq.fu_full::SimdShiftAcc                 0      0.00%     97.35% # attempts to use FU when none available
system.cpu.iq.fu_full::SimdDiv                      0      0.00%     97.35% # attempts to use FU when none available
system.cpu.iq.fu_full::SimdSqrt                     0      0.00%     97.35% # attempts to use FU when none available
system.cpu.iq.fu_full::SimdFloatAdd                 0      0.00%     97.35% # attempts to use FU when none available
system.cpu.iq.fu_full::SimdFloatAlu                 0      0.00%     97.35% # attempts to use FU when none available
system.cpu.iq.fu_full::SimdFloatCmp                 0      0.00%     97.35% # attempts to use FU when none available
system.cpu.iq.fu_full::SimdFloatCvt                 0      0.00%     97.35% # attempts to use FU when none available
system.cpu.iq.fu_full::SimdFloatDiv                 0      0.00%     97.35% # attempts to use FU when none available
system.cpu.iq.fu_full::SimdFloatMisc                0      0.00%     97.35% # attempts to use FU when none available
system.cpu.iq.fu_full::SimdFloatMult                0      0.00%     97.35% # attempts to use FU when none available
system.cpu.iq.fu_full::SimdFloatMultAcc             0      0.00%     97.35% # attempts to use FU when none available
system.cpu.iq.fu_full::SimdFloatSqrt                0      0.00%     97.35% # attempts to use FU when none available
system.cpu.iq.fu_full::SimdReduceAdd                0      0.00%     97.35% # attempts to use FU when none available
system.cpu.iq.fu_full::SimdReduceAlu                0      0.00%     97.35% # attempts to use FU when none available
system.cpu.iq.fu_full::SimdReduceCmp                0      0.00%     97.35% # attempts to use FU when none available
system.cpu.iq.fu_full::SimdFloatReduceAdd            0      0.00%     97.35% # attempts to use FU when none available
system.cpu.iq.fu_full::SimdFloatReduceCmp            0      0.00%     97.35% # attempts to use FU when none available
system.cpu.iq.fu_full::SimdAes                      0      0.00%     97.35% # attempts to use FU when none available
system.cpu.iq.fu_full::SimdAesMix                   0      0.00%     97.35% # attempts to use FU when none available
system.cpu.iq.fu_full::SimdSha1Hash                 0      0.00%     97.35% # attempts to use FU when none available
system.cpu.iq.fu_full::SimdSha1Hash2                0      0.00%     97.35% # attempts to use FU when none available
system.cpu.iq.fu_full::SimdSha256Hash               0      0.00%     97.35% # attempts to use FU when none available
system.cpu.iq.fu_full::SimdSha256Hash2              0      0.00%     97.35% # attempts to use FU when none available
system.cpu.iq.fu_full::SimdShaSigma2                0      0.00%     97.35% # attempts to use FU when none available
system.cpu.iq.fu_full::SimdShaSigma3                0      0.00%     97.35% # attempts to use FU when none available
system.cpu.iq.fu_full::SimdPredAlu                  0      0.00%     97.35% # attempts to use FU when none available
system.cpu.iq.fu_full::MemRead                   3106      1.32%     98.68% # attempts to use FU when none available
system.cpu.iq.fu_full::MemWrite                  3088      1.32%     99.99% # attempts to use FU when none available
system.cpu.iq.fu_full::FloatMemRead                 5      0.00%     99.99% # attempts to use FU when none available
system.cpu.iq.fu_full::FloatMemWrite               14      0.01%    100.00% # attempts to use FU when none available
system.cpu.iq.fu_full::IprAccess                    0      0.00%    100.00% # attempts to use FU when none available
system.cpu.iq.fu_full::InstPrefetch                 0      0.00%    100.00% # attempts to use FU when none available
system.cpu.iq.int_alu_accesses               11977575                       # Number of integer alu accesses
system.cpu.iq.int_inst_queue_reads           40010281                       # Number of integer instruction queue reads
system.cpu.iq.int_inst_queue_wakeup_accesses     11773959                       # Number of integer instruction queue wakeup accesses
system.cpu.iq.int_inst_queue_writes          12099921                       # Number of integer instruction queue writes
system.cpu.iq.iqInstsAdded                   11784489                       # Number of instructions added to the IQ (excludes non-spec)
system.cpu.iq.iqInstsIssued                  11779589                       # Number of instructions issued
system.cpu.iq.iqNonSpecInstsAdded                   7                       # Number of non-speculative instructions added to the IQ
system.cpu.iq.iqSquashedInstsExamined          317150                       # Number of squashed instructions iterated over during squash; mainly for profiling
system.cpu.iq.iqSquashedInstsIssued                98                       # Number of squashed instructions issued
system.cpu.iq.iqSquashedNonSpecRemoved              7                       # Number of squashed non-spec instructions that were removed
system.cpu.iq.iqSquashedOperandsExamined        30388                       # Number of squashed operands that are examined and possibly removed from graph
system.cpu.iq.issued_per_cycle::samples      16219372                       # Number of insts issued each cycle
system.cpu.iq.issued_per_cycle::mean         0.726267                       # Number of insts issued each cycle
system.cpu.iq.issued_per_cycle::stdev        1.760779                       # Number of insts issued each cycle
system.cpu.iq.issued_per_cycle::underflows            0      0.00%      0.00% # Number of insts issued each cycle
system.cpu.iq.issued_per_cycle::0            13217828     81.49%     81.49% # Number of insts issued each cycle
system.cpu.iq.issued_per_cycle::1              436238      2.69%     84.18% # Number of insts issued each cycle
system.cpu.iq.issued_per_cycle::2              370101      2.28%     86.47% # Number of insts issued each cycle
system.cpu.iq.issued_per_cycle::3              702052      4.33%     90.79% # Number of insts issued each cycle
system.cpu.iq.issued_per_cycle::4              349537      2.16%     92.95% # Number of insts issued each cycle
system.cpu.iq.issued_per_cycle::5              245189      1.51%     94.46% # Number of insts issued each cycle
system.cpu.iq.issued_per_cycle::6              550861      3.40%     97.86% # Number of insts issued each cycle
system.cpu.iq.issued_per_cycle::7              212794      1.31%     99.17% # Number of insts issued each cycle
system.cpu.iq.issued_per_cycle::8              134772      0.83%    100.00% # Number of insts issued each cycle
system.cpu.iq.issued_per_cycle::overflows            0      0.00%    100.00% # Number of insts issued each cycle
system.cpu.iq.issued_per_cycle::min_value            0                       # Number of insts issued each cycle
system.cpu.iq.issued_per_cycle::max_value            8                       # Number of insts issued each cycle
system.cpu.iq.issued_per_cycle::total        16219372                       # Number of insts issued each cycle
system.cpu.iq.rate                           0.725327                       # Inst issue rate
system.cpu.iq.vec_alu_accesses                      0                       # Number of vector alu accesses
system.cpu.iq.vec_inst_queue_reads                  0                       # Number of vector instruction queue reads
system.cpu.iq.vec_inst_queue_wakeup_accesses            0                       # Number of vector instruction queue wakeup accesses
system.cpu.iq.vec_inst_queue_writes                 0                       # Number of vector instruction queue writes
system.cpu.memDep0.conflictingLoads              7842                       # Number of conflicting loads.
system.cpu.memDep0.conflictingStores                2                       # Number of conflicting stores.
system.cpu.memDep0.insertedLoads              1216864                       # Number of loads inserted to the mem dependence unit.
system.cpu.memDep0.insertedStores             1040938                       # Number of stores inserted to the mem dependence unit.
system.cpu.misc_regfile_reads                 4996933                       # number of misc regfile reads
system.cpu.numCycles                         16240391                       # number of cpu cycles simulated
system.cpu.numWorkItemsCompleted                    0                       # number of work items this cpu completed
system.cpu.numWorkItemsStarted                      0                       # number of work items this cpu started
system.cpu.timesIdled                             308                       # Number of times that the entire CPU went into an idle state and unscheduled itself
system.cpu.workload.numSyscalls                    56                       # Number of system calls
system.l2bus.snoop_filter.hit_multi_requests            0                       # Number of requests hitting in the snoop filter with multiple (>1) holders of the requested data.
system.l2bus.snoop_filter.hit_multi_snoops            0                       # Number of snoops hitting in the snoop filter with multiple (>1) holders of the requested data.
system.l2bus.snoop_filter.hit_single_requests       196551                       # Number of requests hitting in the snoop filter with a single holder of the requested data.
system.l2bus.snoop_filter.hit_single_snoops          254                       # Number of snoops hitting in the snoop filter with a single holder of the requested data.
system.l2bus.snoop_filter.tot_requests         394365                       # Total number of requests made to the snoop filter.
system.l2bus.snoop_filter.tot_snoops              254                       # Total number of snoops made to the snoop filter.
system.membus.snoop_filter.hit_multi_requests            0                       # Number of requests hitting in the snoop filter with multiple (>1) holders of the requested data.
system.membus.snoop_filter.hit_multi_snoops            0                       # Number of snoops hitting in the snoop filter with multiple (>1) holders of the requested data.
system.membus.snoop_filter.hit_single_requests       180766                       # Number of requests hitting in the snoop filter with a single holder of the requested data.
system.membus.snoop_filter.hit_single_snoops            0                       # Number of snoops hitting in the snoop filter with a single holder of the requested data.
system.membus.snoop_filter.tot_requests        378120                       # Total number of requests made to the snoop filter.
system.membus.snoop_filter.tot_snoops               0                       # Total number of snoops made to the snoop filter.
system.clk_domain.clock                          1000                       # Clock period in ticks
system.clk_domain.voltage_domain.voltage            1                       # Voltage in Volts
system.cpu.branchPred.lookups                 1291185                       # Number of BP lookups
system.cpu.branchPred.condPredicted           1083097                       # Number of conditional branches predicted
system.cpu.branchPred.condIncorrect               993                       # Number of conditional branches incorrect
system.cpu.branchPred.BTBLookups               645110                       # Number of BTB lookups
system.cpu.branchPred.BTBHits                  644302                       # Number of BTB hits
system.cpu.branchPred.BTBHitPct             99.874750                       # BTB Hit Percentage
system.cpu.branchPred.RASUsed                   69605                       # Number of times the RAS was used to get a target.
system.cpu.branchPred.RASIncorrect                  0                       # Number of incorrect RAS predictions.
system.cpu.branchPred.indirectLookups             386                       # Number of indirect predictor lookups.
system.cpu.branchPred.indirectHits                 49                       # Number of indirect target hits.
system.cpu.branchPred.indirectMisses              337                       # Number of indirect misses.
system.cpu.branchPred.indirectMispredicted           90                       # Number of mispredicted indirect branches.
system.cpu.commit.commitSquashedInsts          316806                       # The number of squashed insts skipped by commit
system.cpu.commit.branchMispredicts               827                       # The number of times a branch was mispredicted
system.cpu.commit.numCommittedDist::samples     16178737                       # Number of insts commited each cycle
system.cpu.commit.numCommittedDist::mean     0.708791                       # Number of insts commited each cycle
system.cpu.commit.numCommittedDist::stdev     1.909056                       # Number of insts commited each cycle
system.cpu.commit.numCommittedDist::underflows            0      0.00%      0.00% # Number of insts commited each cycle
system.cpu.commit.numCommittedDist::0        13325922     82.37%     82.37% # Number of insts commited each cycle
system.cpu.commit.numCommittedDist::1          780617      4.82%     87.19% # Number of insts commited each cycle
system.cpu.commit.numCommittedDist::2          263351      1.63%     88.82% # Number of insts commited each cycle
system.cpu.commit.numCommittedDist::3          493275      3.05%     91.87% # Number of insts commited each cycle
system.cpu.commit.numCommittedDist::4          264438      1.63%     93.50% # Number of insts commited each cycle
system.cpu.commit.numCommittedDist::5          129899      0.80%     94.31% # Number of insts commited each cycle
system.cpu.commit.numCommittedDist::6          167107      1.03%     95.34% # Number of insts commited each cycle
system.cpu.commit.numCommittedDist::7           62717      0.39%     95.73% # Number of insts commited each cycle
system.cpu.commit.numCommittedDist::8          691411      4.27%    100.00% # Number of insts commited each cycle
system.cpu.commit.numCommittedDist::overflows            0      0.00%    100.00% # Number of insts commited each cycle
system.cpu.commit.numCommittedDist::min_value            0                       # Number of insts commited each cycle
system.cpu.commit.numCommittedDist::max_value            8                       # Number of insts commited each cycle
system.cpu.commit.numCommittedDist::total     16178737                       # Number of insts commited each cycle
system.cpu.commit.instsCommitted              6438899                       # Number of instructions committed
system.cpu.commit.opsCommitted               11467340                       # Number of ops (including micro ops) committed
system.cpu.commit.memRefs                     2201215                       # Number of memory references committed
system.cpu.commit.loads                       1182733                       # Number of loads committed
system.cpu.commit.amos                              0                       # Number of atomic instructions committed
system.cpu.commit.membars                           0                       # Number of memory barriers committed
system.cpu.commit.branches                    1248759                       # Number of branches committed
system.cpu.commit.vector                            0                       # Number of committed Vector instructions.
system.cpu.commit.floating                       1267                       # Number of committed floating point instructions.
system.cpu.commit.integer                    11400801                       # Number of committed integer instructions.
system.cpu.commit.functionCalls                 65869                       # Number of function calls committed.
system.cpu.commit.committedInstType_0::No_OpClass        33194      0.29%      0.29% # Class of committed instruction
system.cpu.commit.committedInstType_0::IntAlu      9232341     80.51%     80.80% # Class of committed instruction
system.cpu.commit.committedInstType_0::IntMult            5      0.00%     80.80% # Class of committed instruction
system.cpu.commit.committedInstType_0::IntDiv           21      0.00%     80.80% # Class of committed instruction
system.cpu.commit.committedInstType_0::FloatAdd          135      0.00%     80.80% # Class of committed instruction
system.cpu.commit.committedInstType_0::FloatCmp            0      0.00%     80.80% # Class of committed instruction
system.cpu.commit.committedInstType_0::FloatCvt            0      0.00%     80.80% # Class of committed instruction
system.cpu.commit.committedInstType_0::FloatMult            0      0.00%     80.80% # Class of committed instruction
system.cpu.commit.committedInstType_0::FloatMultAcc            0      0.00%     80.80% # Class of committed instruction
system.cpu.commit.committedInstType_0::FloatDiv            0      0.00%     80.80% # Class of committed instruction
system.cpu.commit.committedInstType_0::FloatMisc            0      0.00%     80.80% # Class of committed instruction
system.cpu.commit.committedInstType_0::FloatSqrt            0      0.00%     80.80% # Class of committed instruction
system.cpu.commit.committedInstType_0::SimdAdd            0      0.00%     80.80% # Class of committed instruction
system.cpu.commit.committedInstType_0::SimdAddAcc            0      0.00%     80.80% # Class of committed instruction
system.cpu.commit.committedInstType_0::SimdAlu          100      0.00%     80.80% # Class of committed instruction
system.cpu.commit.committedInstType_0::SimdCmp           12      0.00%     80.80% # Class of committed instruction
system.cpu.commit.committedInstType_0::SimdCvt           74      0.00%     80.80% # Class of committed instruction
system.cpu.commit.committedInstType_0::SimdMisc          243      0.00%     80.80% # Class of committed instruction
system.cpu.commit.committedInstType_0::SimdMult            0      0.00%     80.80% # Class of committed instruction
system.cpu.commit.committedInstType_0::SimdMultAcc            0      0.00%     80.80% # Class of committed instruction
system.cpu.commit.committedInstType_0::SimdShift            0      0.00%     80.80% # Class of committed instruction
system.cpu.commit.committedInstType_0::SimdShiftAcc            0      0.00%     80.80% # Class of committed instruction
system.cpu.commit.committedInstType_0::SimdDiv            0      0.00%     80.80% # Class of committed instruction
system.cpu.commit.committedInstType_0::SimdSqrt            0      0.00%     80.80% # Class of committed instruction
system.cpu.commit.committedInstType_0::SimdFloatAdd            0      0.00%     80.80% # Class of committed instruction
system.cpu.commit.committedInstType_0::SimdFloatAlu            0      0.00%     80.80% # Class of committed instruction
system.cpu.commit.committedInstType_0::SimdFloatCmp            0      0.00%     80.80% # Class of committed instruction
system.cpu.commit.committedInstType_0::SimdFloatCvt            0      0.00%     80.80% # Class of committed instruction
system.cpu.commit.committedInstType_0::SimdFloatDiv            0      0.00%     80.80% # Class of committed instruction
system.cpu.commit.committedInstType_0::SimdFloatMisc            0      0.00%     80.80% # Class of committed instruction
system.cpu.commit.committedInstType_0::SimdFloatMult            0      0.00%     80.80% # Class of committed instruction
system.cpu.commit.committedInstType_0::SimdFloatMultAcc            0      0.00%     80.80% # Class of committed instruction
system.cpu.commit.committedInstType_0::SimdFloatSqrt            0      0.00%     80.80% # Class of committed instruction
system.cpu.commit.committedInstType_0::SimdReduceAdd            0      0.00%     80.80% # Class of committed instruction
system.cpu.commit.committedInstType_0::SimdReduceAlu            0      0.00%     80.80% # Class of committed instruction
system.cpu.commit.committedInstType_0::SimdReduceCmp            0      0.00%     80.80% # Class of committed instruction
system.cpu.commit.committedInstType_0::SimdFloatReduceAdd            0      0.00%     80.80% # Class of committed instruction
system.cpu.commit.committedInstType_0::SimdFloatReduceCmp            0      0.00%     80.80% # Class of committed instruction
system.cpu.commit.committedInstType_0::SimdAes            0      0.00%     80.80% # Class of committed instruction
system.cpu.commit.committedInstType_0::SimdAesMix            0      0.00%     80.80% # Class of committed instruction
system.cpu.commit.committedInstType_0::SimdSha1Hash            0      0.00%     80.80% # Class of committed instruction
system.cpu.commit.committedInstType_0::SimdSha1Hash2            0      0.00%     80.80% # Class of committed instruction
system.cpu.commit.committedInstType_0::SimdSha256Hash            0      0.00%     80.80% # Class of committed instruction
system.cpu.commit.committedInstType_0::SimdSha256Hash2            0      0.00%     80.80% # Class of committed instruction
system.cpu.commit.committedInstType_0::SimdShaSigma2            0      0.00%     80.80% # Class of committed instruction
system.cpu.commit.committedInstType_0::SimdShaSigma3            0      0.00%     80.80% # Class of committed instruction
system.cpu.commit.committedInstType_0::SimdPredAlu            0      0.00%     80.80% # Class of committed instruction
system.cpu.commit.committedInstType_0::MemRead      1182655     10.31%     91.12% # Class of committed instruction
system.cpu.commit.committedInstType_0::MemWrite      1018016      8.88%    100.00% # Class of committed instruction
system.cpu.commit.committedInstType_0::FloatMemRead           78      0.00%    100.00% # Class of committed instruction
system.cpu.commit.committedInstType_0::FloatMemWrite          466      0.00%    100.00% # Class of committed instruction
system.cpu.commit.committedInstType_0::IprAccess            0      0.00%    100.00% # Class of committed instruction
system.cpu.commit.committedInstType_0::InstPrefetch            0      0.00%    100.00% # Class of committed instruction
system.cpu.commit.committedInstType_0::total     11467340                       # Class of committed instruction
system.cpu.commit.commitEligibleSamples        691411                       # number cycles where commit BW limit reached
system.cpu.dcache.demand_hits::.cpu.data      1544820                       # number of demand (read+write) hits
system.cpu.dcache.demand_hits::total          1544820                       # number of demand (read+write) hits
system.cpu.dcache.overall_hits::.cpu.data      1544820                       # number of overall hits
system.cpu.dcache.overall_hits::total         1544820                       # number of overall hits
system.cpu.dcache.demand_misses::.cpu.data       230227                       # number of demand (read+write) misses
system.cpu.dcache.demand_misses::total         230227                       # number of demand (read+write) misses
system.cpu.dcache.overall_misses::.cpu.data       230227                       # number of overall misses
system.cpu.dcache.overall_misses::total        230227                       # number of overall misses
system.cpu.dcache.demand_miss_latency::.cpu.data  23568163999                       # number of demand (read+write) miss cycles
system.cpu.dcache.demand_miss_latency::total  23568163999                       # number of demand (read+write) miss cycles
system.cpu.dcache.overall_miss_latency::.cpu.data  23568163999                       # number of overall miss cycles
system.cpu.dcache.overall_miss_latency::total  23568163999                       # number of overall miss cycles
system.cpu.dcache.demand_accesses::.cpu.data      1775047                       # number of demand (read+write) accesses
system.cpu.dcache.demand_accesses::total      1775047                       # number of demand (read+write) accesses
system.cpu.dcache.overall_accesses::.cpu.data      1775047                       # number of overall (read+write) accesses
system.cpu.dcache.overall_accesses::total      1775047                       # number of overall (read+write) accesses
system.cpu.dcache.demand_miss_rate::.cpu.data     0.129702                       # miss rate for demand accesses
system.cpu.dcache.demand_miss_rate::total     0.129702                       # miss rate for demand accesses
system.cpu.dcache.overall_miss_rate::.cpu.data     0.129702                       # miss rate for overall accesses
system.cpu.dcache.overall_miss_rate::total     0.129702                       # miss rate for overall accesses
system.cpu.dcache.demand_avg_miss_latency::.cpu.data 102369.244263                       # average overall miss latency
system.cpu.dcache.demand_avg_miss_latency::total 102369.244263                       # average overall miss latency
system.cpu.dcache.overall_avg_miss_latency::.cpu.data 102369.244263                       # average overall miss latency
system.cpu.dcache.overall_avg_miss_latency::total 102369.244263                       # average overall miss latency
system.cpu.dcache.blocked_cycles::no_mshrs         1224                       # number of cycles access was blocked
system.cpu.dcache.blocked_cycles::no_targets            0                       # number of cycles access was blocked
system.cpu.dcache.blocked::no_mshrs                76                       # number of cycles access was blocked
system.cpu.dcache.blocked::no_targets               0                       # number of cycles access was blocked
system.cpu.dcache.avg_blocked_cycles::no_mshrs    16.105263                       # average number of cycles each access was blocked
system.cpu.dcache.avg_blocked_cycles::no_targets          nan                       # average number of cycles each access was blocked
system.cpu.dcache.writebacks::.writebacks        65913                       # number of writebacks
system.cpu.dcache.writebacks::total             65913                       # number of writebacks
system.cpu.dcache.demand_mshr_hits::.cpu.data        33018                       # number of demand (read+write) MSHR hits
system.cpu.dcache.demand_mshr_hits::total        33018                       # number of demand (read+write) MSHR hits
system.cpu.dcache.overall_mshr_hits::.cpu.data        33018                       # number of overall MSHR hits
system.cpu.dcache.overall_mshr_hits::total        33018                       # number of overall MSHR hits
system.cpu.dcache.demand_mshr_misses::.cpu.data       197209                       # number of demand (read+write) MSHR misses
system.cpu.dcache.demand_mshr_misses::total       197209                       # number of demand (read+write) MSHR misses
system.cpu.dcache.overall_mshr_misses::.cpu.data       197209                       # number of overall MSHR misses
system.cpu.dcache.overall_mshr_misses::total       197209                       # number of overall MSHR misses
system.cpu.dcache.demand_mshr_miss_latency::.cpu.data  20196642000                       # number of demand (read+write) MSHR miss cycles
system.cpu.dcache.demand_mshr_miss_latency::total  20196642000                       # number of demand (read+write) MSHR miss cycles
system.cpu.dcache.overall_mshr_miss_latency::.cpu.data  20196642000                       # number of overall MSHR miss cycles
system.cpu.dcache.overall_mshr_miss_latency::total  20196642000                       # number of overall MSHR miss cycles
system.cpu.dcache.demand_mshr_miss_rate::.cpu.data     0.111101                       # mshr miss rate for demand accesses
system.cpu.dcache.demand_mshr_miss_rate::total     0.111101                       # mshr miss rate for demand accesses
system.cpu.dcache.overall_mshr_miss_rate::.cpu.data     0.111101                       # mshr miss rate for overall accesses
system.cpu.dcache.overall_mshr_miss_rate::total     0.111101                       # mshr miss rate for overall accesses
system.cpu.dcache.demand_avg_mshr_miss_latency::.cpu.data 102412.374689                       # average overall mshr miss latency
system.cpu.dcache.demand_avg_mshr_miss_latency::total 102412.374689                       # average overall mshr miss latency
system.cpu.dcache.overall_avg_mshr_miss_latency::.cpu.data 102412.374689                       # average overall mshr miss latency
system.cpu.dcache.overall_avg_mshr_miss_latency::total 102412.374689                       # average overall mshr miss latency
system.cpu.dcache.replacements                 196185                       # number of replacements
system.cpu.dcache.ReadReq_hits::.cpu.data       592089                       # number of ReadReq hits
system.cpu.dcache.ReadReq_hits::total          592089                       # number of ReadReq hits
system.cpu.dcache.ReadReq_misses::.cpu.data       164475                       # number of ReadReq misses
system.cpu.dcache.ReadReq_misses::total        164475                       # number of ReadReq misses
system.cpu.dcache.ReadReq_miss_latency::.cpu.data  16652191000                       # number of ReadReq miss cycles
system.cpu.dcache.ReadReq_miss_latency::total  16652191000                       # number of ReadReq miss cycles
system.cpu.dcache.ReadReq_accesses::.cpu.data       756564                       # number of ReadReq accesses(hits+misses)
system.cpu.dcache.ReadReq_accesses::total       756564                       # number of ReadReq accesses(hits+misses)
system.cpu.dcache.ReadReq_miss_rate::.cpu.data     0.217397                       # miss rate for ReadReq accesses
system.cpu.dcache.ReadReq_miss_rate::total     0.217397                       # miss rate for ReadReq accesses
system.cpu.dcache.ReadReq_avg_miss_latency::.cpu.data 101244.511324                       # average ReadReq miss latency
system.cpu.dcache.ReadReq_avg_miss_latency::total 101244.511324                       # average ReadReq miss latency
system.cpu.dcache.ReadReq_mshr_hits::.cpu.data        33015                       # number of ReadReq MSHR hits
system.cpu.dcache.ReadReq_mshr_hits::total        33015                       # number of ReadReq MSHR hits
system.cpu.dcache.ReadReq_mshr_misses::.cpu.data       131460                       # number of ReadReq MSHR misses
system.cpu.dcache.ReadReq_mshr_misses::total       131460                       # number of ReadReq MSHR misses
system.cpu.dcache.ReadReq_mshr_miss_latency::.cpu.data  13412348000                       # number of ReadReq MSHR miss cycles
system.cpu.dcache.ReadReq_mshr_miss_latency::total  13412348000                       # number of ReadReq MSHR miss cycles
system.cpu.dcache.ReadReq_mshr_miss_rate::.cpu.data     0.173759                       # mshr miss rate for ReadReq accesses
system.cpu.dcache.ReadReq_mshr_miss_rate::total     0.173759                       # mshr miss rate for ReadReq accesses
system.cpu.dcache.ReadReq_avg_mshr_miss_latency::.cpu.data 102026.076373                       # average ReadReq mshr miss latency
system.cpu.dcache.ReadReq_avg_mshr_miss_latency::total 102026.076373                       # average ReadReq mshr miss latency
system.cpu.dcache.WriteReq_hits::.cpu.data       952731                       # number of WriteReq hits
system.cpu.dcache.WriteReq_hits::total         952731                       # number of WriteReq hits
system.cpu.dcache.WriteReq_misses::.cpu.data        65752                       # number of WriteReq misses
system.cpu.dcache.WriteReq_misses::total        65752                       # number of WriteReq misses
system.cpu.dcache.WriteReq_miss_latency::.cpu.data   6915972999                       # number of WriteReq miss cycles
system.cpu.dcache.WriteReq_miss_latency::total   6915972999                       # number of WriteReq miss cycles
system.cpu.dcache.WriteReq_accesses::.cpu.data      1018483                       # number of WriteReq accesses(hits+misses)
system.cpu.dcache.WriteReq_accesses::total      1018483                       # number of WriteReq accesses(hits+misses)
system.cpu.dcache.WriteReq_miss_rate::.cpu.data     0.064559                       # miss rate for WriteReq accesses
system.cpu.dcache.WriteReq_miss_rate::total     0.064559                       # miss rate for WriteReq accesses
system.cpu.dcache.WriteReq_avg_miss_latency::.cpu.data 105182.701652                       # average WriteReq miss latency
system.cpu.dcache.WriteReq_avg_miss_latency::total 105182.701652                       # average WriteReq miss latency
system.cpu.dcache.WriteReq_mshr_hits::.cpu.data            3                       # number of WriteReq MSHR hits
system.cpu.dcache.WriteReq_mshr_hits::total            3                       # number of WriteReq MSHR hits
system.cpu.dcache.WriteReq_mshr_misses::.cpu.data        65749                       # number of WriteReq MSHR misses
system.cpu.dcache.WriteReq_mshr_misses::total        65749                       # number of WriteReq MSHR misses
system.cpu.dcache.WriteReq_mshr_miss_latency::.cpu.data   6784294000                       # number of WriteReq MSHR miss cycles
system.cpu.dcache.WriteReq_mshr_miss_latency::total   6784294000                       # number of WriteReq MSHR miss cycles
system.cpu.dcache.WriteReq_mshr_miss_rate::.cpu.data     0.064556                       # mshr miss rate for WriteReq accesses
system.cpu.dcache.WriteReq_mshr_miss_rate::total     0.064556                       # mshr miss rate for WriteReq accesses
system.cpu.dcache.WriteReq_avg_mshr_miss_latency::.cpu.data 103184.748057                       # average WriteReq mshr miss latency
system.cpu.dcache.WriteReq_avg_mshr_miss_latency::total 103184.748057                       # average WriteReq mshr miss latency
system.cpu.dcache.power_state.pwrStateResidencyTicks::UNDEFINED  16240390000                       # Cumulative time (in ticks) in various power states
system.cpu.dcache.tags.tagsinuse          1018.618051                       # Cycle average of tags in use
system.cpu.dcache.tags.total_refs             1742029                       # Total number of references to valid blocks.
system.cpu.dcache.tags.sampled_refs            197209                       # Sample count of references to valid blocks.
system.cpu.dcache.tags.avg_refs              8.833415                       # Average number of references to valid blocks.
system.cpu.dcache.tags.warmup_cycle            222000                       # Cycle when the warmup percentage was hit.
system.cpu.dcache.tags.occ_blocks::.cpu.data  1018.618051                       # Average occupied blocks per requestor
system.cpu.dcache.tags.occ_percent::.cpu.data     0.994744                       # Average percentage of cache occupancy
system.cpu.dcache.tags.occ_percent::total     0.994744                       # Average percentage of cache occupancy
system.cpu.dcache.tags.occ_task_id_blocks::1024         1024                       # Occupied blocks per task id
system.cpu.dcache.tags.age_task_id_blocks_1024::0          158                       # Occupied blocks per task id
system.cpu.dcache.tags.age_task_id_blocks_1024::1          866                       # Occupied blocks per task id
system.cpu.dcache.tags.occ_task_id_percent::1024            1                       # Percentage of cache occupancy per task id
system.cpu.dcache.tags.tag_accesses           3747303                       # Number of tag accesses
system.cpu.dcache.tags.data_accesses          3747303                       # Number of data accesses
system.cpu.dcache.tags.power_state.pwrStateResidencyTicks::UNDEFINED  16240390000                       # Cumulative time (in ticks) in various power states
system.cpu.decode.idleCycles                   509266                       # Number of cycles decode is idle
system.cpu.decode.blockedCycles              14053604                       # Number of cycles decode is blocked
system.cpu.decode.runCycles                   1339887                       # Number of cycles decode is running
system.cpu.decode.unblockCycles                314184                       # Number of cycles decode is unblocking
system.cpu.decode.squashCycles                   2431                       # Number of cycles decode is squashing
system.cpu.decode.branchResolved               644319                       # Number of times decode resolved a  branch
system.cpu.decode.branchMispred                   230                       # Number of times decode detected a branch misprediction
system.cpu.decode.decodedInsts               11799362                       # Number of instructions handled by decode
system.cpu.decode.squashedInsts                  1092                       # Number of squashed instructions handled by decode
system.cpu.dtb.rdAccesses                     1216083                       # TLB accesses on read requests
system.cpu.dtb.wrAccesses                     1040455                       # TLB accesses on write requests
system.cpu.dtb.rdMisses                          3187                       # TLB misses on read requests
system.cpu.dtb.wrMisses                          3138                       # TLB misses on write requests
system.cpu.dtb.walker.power_state.pwrStateResidencyTicks::UNDEFINED  16240390000                       # Cumulative time (in ticks) in various power states
system.cpu.fetch.icacheStallCycles            1007691                       # Number of cycles fetch is stalled on an Icache miss
system.cpu.fetch.insts                        6649831                       # Number of instructions fetch has processed
system.cpu.fetch.branches                     1291185                       # Number of branches that fetch encountered
system.cpu.fetch.predictedBranches             713956                       # Number of branches that fetch has predicted taken
system.cpu.fetch.cycles                      15208559                       # Number of cycles fetch has run and was not squashing or blocked
system.cpu.fetch.squashCycles                    5312                       # Number of cycles fetch has spent squashing
system.cpu.fetch.miscStallCycles                   72                       # Number of cycles fetch has spent waiting on interrupts,or bad addresses, or out of MSHRs
system.cpu.fetch.pendingTrapStallCycles           387                       # Number of stall cycles due to pending traps
system.cpu.fetch.pendingQuiesceStallCycles            2                       # Number of stall cycles due to pending quiesce instructions
system.cpu.fetch.icacheWaitRetryStallCycles            5                       # Number of stall cycles due to full MSHR
system.cpu.fetch.cacheLines                    990184                       # Number of cache lines fetched
system.cpu.fetch.icacheSquashes                   515                       # Number of outstanding Icache misses that were squashed
system.cpu.fetch.nisnDist::samples           16219372                       # Number of instructions fetched each cycle (Total)
system.cpu.fetch.nisnDist::mean              0.731714                       # Number of instructions fetched each cycle (Total)
system.cpu.fetch.nisnDist::stdev             2.135932                       # Number of instructions fetched each cycle (Total)
system.cpu.fetch.nisnDist::underflows               0      0.00%      0.00% # Number of instructions fetched each cycle (Total)
system.cpu.fetch.nisnDist::0                 14323054     88.31%     88.31% # Number of instructions fetched each cycle (Total)
system.cpu.fetch.nisnDist::1                    40897      0.25%     88.56% # Number of instructions fetched each cycle (Total)
system.cpu.fetch.nisnDist::2                    79472      0.49%     89.05% # Number of instructions fetched each cycle (Total)
system.cpu.fetch.nisnDist::3                   213638      1.32%     90.37% # Number of instructions fetched each cycle (Total)
system.cpu.fetch.nisnDist::4                    78152      0.48%     90.85% # Number of instructions fetched each cycle (Total)
system.cpu.fetch.nisnDist::5                   243278      1.50%     92.35% # Number of instructions fetched each cycle (Total)
system.cpu.fetch.nisnDist::6                    41302      0.25%     92.60% # Number of instructions fetched each cycle (Total)
system.cpu.fetch.nisnDist::7                   346251      2.13%     94.74% # Number of instructions fetched each cycle (Total)
system.cpu.fetch.nisnDist::8                   853328      5.26%    100.00% # Number of instructions fetched each cycle (Total)
system.cpu.fetch.nisnDist::overflows                0      0.00%    100.00% # Number of instructions fetched each cycle (Total)
system.cpu.fetch.nisnDist::min_value                0                       # Number of instructions fetched each cycle (Total)
system.cpu.fetch.nisnDist::max_value                8                       # Number of instructions fetched each cycle (Total)
system.cpu.fetch.nisnDist::total             16219372                       # Number of instructions fetched each cycle (Total)
system.cpu.fetch.branchRate                  0.079505                       # Number of branch fetches per cycle
system.cpu.fetch.rate                        0.409462                       # Number of inst fetches per cycle
system.cpu.icache.demand_hits::.cpu.inst       989429                       # number of demand (read+write) hits
system.cpu.icache.demand_hits::total           989429                       # number of demand (read+write) hits
system.cpu.icache.overall_hits::.cpu.inst       989429                       # number of overall hits
system.cpu.icache.overall_hits::total          989429                       # number of overall hits
system.cpu.icache.demand_misses::.cpu.inst          755                       # number of demand (read+write) misses
system.cpu.icache.demand_misses::total            755                       # number of demand (read+write) misses
system.cpu.icache.overall_misses::.cpu.inst          755                       # number of overall misses
system.cpu.icache.overall_misses::total           755                       # number of overall misses
system.cpu.icache.demand_miss_latency::.cpu.inst     61938999                       # number of demand (read+write) miss cycles
system.cpu.icache.demand_miss_latency::total     61938999                       # number of demand (read+write) miss cycles
system.cpu.icache.overall_miss_latency::.cpu.inst     61938999                       # number of overall miss cycles
system.cpu.icache.overall_miss_latency::total     61938999                       # number of overall miss cycles
system.cpu.icache.demand_accesses::.cpu.inst       990184                       # number of demand (read+write) accesses
system.cpu.icache.demand_accesses::total       990184                       # number of demand (read+write) accesses
system.cpu.icache.overall_accesses::.cpu.inst       990184                       # number of overall (read+write) accesses
system.cpu.icache.overall_accesses::total       990184                       # number of overall (read+write) accesses
system.cpu.icache.demand_miss_rate::.cpu.inst     0.000762                       # miss rate for demand accesses
system.cpu.icache.demand_miss_rate::total     0.000762                       # miss rate for demand accesses
system.cpu.icache.overall_miss_rate::.cpu.inst     0.000762                       # miss rate for overall accesses
system.cpu.icache.overall_miss_rate::total     0.000762                       # miss rate for overall accesses
system.cpu.icache.demand_avg_miss_latency::.cpu.inst 82038.409272                       # average overall miss latency
system.cpu.icache.demand_avg_miss_latency::total 82038.409272                       # average overall miss latency
system.cpu.icache.overall_avg_miss_latency::.cpu.inst 82038.409272                       # average overall miss latency
system.cpu.icache.overall_avg_miss_latency::total 82038.409272                       # average overall miss latency
system.cpu.icache.blocked_cycles::no_mshrs          180                       # number of cycles access was blocked
system.cpu.icache.blocked_cycles::no_targets            0                       # number of cycles access was blocked
system.cpu.icache.blocked::no_mshrs                 5                       # number of cycles access was blocked
system.cpu.icache.blocked::no_targets               0                       # number of cycles access was blocked
system.cpu.icache.avg_blocked_cycles::no_mshrs           36                       # average number of cycles each access was blocked
system.cpu.icache.avg_blocked_cycles::no_targets          nan                       # average number of cycles each access was blocked
system.cpu.icache.demand_mshr_hits::.cpu.inst          150                       # number of demand (read+write) MSHR hits
system.cpu.icache.demand_mshr_hits::total          150                       # number of demand (read+write) MSHR hits
system.cpu.icache.overall_mshr_hits::.cpu.inst          150                       # number of overall MSHR hits
system.cpu.icache.overall_mshr_hits::total          150                       # number of overall MSHR hits
system.cpu.icache.demand_mshr_misses::.cpu.inst          605                       # number of demand (read+write) MSHR misses
system.cpu.icache.demand_mshr_misses::total          605                       # number of demand (read+write) MSHR misses
system.cpu.icache.overall_mshr_misses::.cpu.inst          605                       # number of overall MSHR misses
system.cpu.icache.overall_mshr_misses::total          605                       # number of overall MSHR misses
system.cpu.icache.demand_mshr_miss_latency::.cpu.inst     50310999                       # number of demand (read+write) MSHR miss cycles
system.cpu.icache.demand_mshr_miss_latency::total     50310999                       # number of demand (read+write) MSHR miss cycles
system.cpu.icache.overall_mshr_miss_latency::.cpu.inst     50310999                       # number of overall MSHR miss cycles
system.cpu.icache.overall_mshr_miss_latency::total     50310999                       # number of overall MSHR miss cycles
system.cpu.icache.demand_mshr_miss_rate::.cpu.inst     0.000611                       # mshr miss rate for demand accesses
system.cpu.icache.demand_mshr_miss_rate::total     0.000611                       # mshr miss rate for demand accesses
system.cpu.icache.overall_mshr_miss_rate::.cpu.inst     0.000611                       # mshr miss rate for overall accesses
system.cpu.icache.overall_mshr_miss_rate::total     0.000611                       # mshr miss rate for overall accesses
system.cpu.icache.demand_avg_mshr_miss_latency::.cpu.inst 83158.676033                       # average overall mshr miss latency
system.cpu.icache.demand_avg_mshr_miss_latency::total 83158.676033                       # average overall mshr miss latency
system.cpu.icache.overall_avg_mshr_miss_latency::.cpu.inst 83158.676033                       # average overall mshr miss latency
system.cpu.icache.overall_avg_mshr_miss_latency::total 83158.676033                       # average overall mshr miss latency
system.cpu.icache.replacements                    366                       # number of replacements
system.cpu.icache.ReadReq_hits::.cpu.inst       989429                       # number of ReadReq hits
system.cpu.icache.ReadReq_hits::total          989429                       # number of ReadReq hits
system.cpu.icache.ReadReq_misses::.cpu.inst          755                       # number of ReadReq misses
system.cpu.icache.ReadReq_misses::total           755                       # number of ReadReq misses
system.cpu.icache.ReadReq_miss_latency::.cpu.inst     61938999                       # number of ReadReq miss cycles
system.cpu.icache.ReadReq_miss_latency::total     61938999                       # number of ReadReq miss cycles
system.cpu.icache.ReadReq_accesses::.cpu.inst       990184                       # number of ReadReq accesses(hits+misses)
system.cpu.icache.ReadReq_accesses::total       990184                       # number of ReadReq accesses(hits+misses)
system.cpu.icache.ReadReq_miss_rate::.cpu.inst     0.000762                       # miss rate for ReadReq accesses
system.cpu.icache.ReadReq_miss_rate::total     0.000762                       # miss rate for ReadReq accesses
system.cpu.icache.ReadReq_avg_miss_latency::.cpu.inst 82038.409272                       # average ReadReq miss latency
system.cpu.icache.ReadReq_avg_miss_latency::total 82038.409272                       # average ReadReq miss latency
system.cpu.icache.ReadReq_mshr_hits::.cpu.inst          150                       # number of ReadReq MSHR hits
system.cpu.icache.ReadReq_mshr_hits::total          150                       # number of ReadReq MSHR hits
system.cpu.icache.ReadReq_mshr_misses::.cpu.inst          605                       # number of ReadReq MSHR misses
system.cpu.icache.ReadReq_mshr_misses::total          605                       # number of ReadReq MSHR misses
system.cpu.icache.ReadReq_mshr_miss_latency::.cpu.inst     50310999                       # number of ReadReq MSHR miss cycles
system.cpu.icache.ReadReq_mshr_miss_latency::total     50310999                       # number of ReadReq MSHR miss cycles
system.cpu.icache.ReadReq_mshr_miss_rate::.cpu.inst     0.000611                       # mshr miss rate for ReadReq accesses
system.cpu.icache.ReadReq_mshr_miss_rate::total     0.000611                       # mshr miss rate for ReadReq accesses
system.cpu.icache.ReadReq_avg_mshr_miss_latency::.cpu.inst 83158.676033                       # average ReadReq mshr miss latency
system.cpu.icache.ReadReq_avg_mshr_miss_latency::total 83158.676033                       # average ReadReq mshr miss latency
system.cpu.icache.power_state.pwrStateResidencyTicks::UNDEFINED  16240390000                       # Cumulative time (in ticks) in various power states
system.cpu.icache.tags.tagsinuse           237.728363                       # Cycle average of tags in use
system.cpu.icache.tags.total_refs              990033                       # Total number of references to valid blocks.
system.cpu.icache.tags.sampled_refs               604                       # Sample count of references to valid blocks.
system.cpu.icache.tags.avg_refs           1639.127483                       # Average number of references to valid blocks.
system.cpu.icache.tags.warmup_cycle            107000                       # Cycle when the warmup percentage was hit.
system.cpu.icache.tags.occ_blocks::.cpu.inst   237.728363                       # Average occupied blocks per requestor
system.cpu.icache.tags.occ_percent::.cpu.inst     0.928626                       # Average percentage of cache occupancy
system.cpu.icache.tags.occ_percent::total     0.928626                       # Average percentage of cache occupancy
system.cpu.icache.tags.occ_task_id_blocks::1024          238                       # Occupied blocks per task id
system.cpu.icache.tags.age_task_id_blocks_1024::0           35                       # Occupied blocks per task id
system.cpu.icache.tags.age_task_id_blocks_1024::3            2                       # Occupied blocks per task id
system.cpu.icache.tags.age_task_id_blocks_1024::4          201                       # Occupied blocks per task id
system.cpu.icache.tags.occ_task_id_percent::1024     0.929688                       # Percentage of cache occupancy per task id
system.cpu.icache.tags.tag_accesses           1980972                       # Number of tag accesses
system.cpu.icache.tags.data_accesses          1980972                       # Number of data accesses
system.cpu.icache.tags.power_state.pwrStateResidencyTicks::UNDEFINED  16240390000                       # Cumulative time (in ticks) in various power states
system.cpu.interrupts.clk_domain.clock          16000                       # Clock period in ticks
system.cpu.itb.rdAccesses                           0                       # TLB accesses on read requests
system.cpu.itb.wrAccesses                      990257                       # TLB accesses on write requests
system.cpu.itb.rdMisses                             0                       # TLB misses on read requests
system.cpu.itb.wrMisses                           115                       # TLB misses on write requests
system.cpu.itb.walker.power_state.pwrStateResidencyTicks::UNDEFINED  16240390000                       # Cumulative time (in ticks) in various power states
system.cpu.lsq0.forwLoads                      459421                       # Number of loads that had data forwarded from stores
system.cpu.lsq0.squashedLoads                   34131                       # Number of loads squashed
system.cpu.lsq0.ignoredResponses                    1                       # Number of memory responses ignored because the instruction is squashed
system.cpu.lsq0.memOrderViolation                  12                       # Number of memory ordering violations
system.cpu.lsq0.squashedStores                  22456                       # Number of stores squashed
system.cpu.lsq0.rescheduledLoads                    4                       # Number of loads that were rescheduled
system.cpu.lsq0.blockedByCache                     69                       # Number of times an access to memory failed due to the cache being blocked
system.cpu.power_state.pwrStateResidencyTicks::ON  16240390000                       # Cumulative time (in ticks) in various power states
system.cpu.rename.squashCycles                   2431                       # Number of cycles rename is squashing
system.cpu.rename.idleCycles                   647703                       # Number of cycles rename is idle
system.cpu.rename.blockCycles                 6948189                       # Number of cycles rename is blocking
system.cpu.rename.serializeStallCycles            386                       # count of cycles rename stalledfor serializing inst
system.cpu.rename.runCycles                   1503154                       # Number of cycles rename is running
system.cpu.rename.unblockCycles               7117509                       # Number of cycles rename is unblocking
system.cpu.rename.renamedInsts               11789031                       # Number of instructions processed by rename
system.cpu.rename.ROBFullEvents                  4621                       # Number of times rename has blocked due to ROB full
system.cpu.rename.IQFullEvents                 197565                       # Number of times rename has blocked due to IQ full
system.cpu.rename.SQFullEvents                6871562                       # Number of times rename has blocked due to SQ full
system.cpu.rename.renamedOperands            13488854                       # Number of destination operands rename has renamed
system.cpu.rename.lookups                    30157328                       # Number of register rename lookups that rename has made
system.cpu.rename.intLookups                 18020039                       # Number of integer rename lookups
system.cpu.rename.fpLookups                      1869                       # Number of floating rename lookups
system.cpu.rename.committedMaps              13141967                       # Number of HB maps that are committed
system.cpu.rename.undoneMaps                   346881                       # Number of HB maps that are undone due to squashing
system.cpu.rename.serializing                      11                       # count of serializing insts renamed
system.cpu.rename.tempSerializing                   8                       # count of temporary serializing insts renamed
system.cpu.rename.skidInsts                   1973561                       # count of insts added to the skid buffer
system.cpu.rob.reads                         27250750                       # The number of ROB reads
system.cpu.rob.writes                        23608949                       # The number of ROB writes
system.cpu.thread_0.numInsts                  6438899                       # Number of Instructions committed
system.cpu.thread_0.numOps                   11467340                       # Number of Ops committed
system.cpu.thread_0.numMemRefs                      0                       # Number of Memory References
system.l2bus.trans_dist::ReadResp              132064                       # Transaction distribution
system.l2bus.trans_dist::WritebackDirty        131594                       # Transaction distribution
system.l2bus.trans_dist::CleanEvict            245941                       # Transaction distribution
system.l2bus.trans_dist::ReadExReq              65749                       # Transaction distribution
system.l2bus.trans_dist::ReadExResp             65749                       # Transaction distribution
system.l2bus.trans_dist::ReadSharedReq         132065                       # Transaction distribution
system.l2bus.pkt_count_system.cpu.icache.mem_side_port::system.l2cache.cpu_side_port         1575                       # Packet count per connected requestor and responder (bytes)
system.l2bus.pkt_count_system.cpu.dcache.mem_side_port::system.l2cache.cpu_side_port       590603                       # Packet count per connected requestor and responder (bytes)
system.l2bus.pkt_count::total                  592178                       # Packet count per connected requestor and responder (bytes)
system.l2bus.pkt_size_system.cpu.icache.mem_side_port::system.l2cache.cpu_side_port        38656                       # Cumulative packet size per connected requestor and responder (bytes)
system.l2bus.pkt_size_system.cpu.dcache.mem_side_port::system.l2cache.cpu_side_port     16839808                       # Cumulative packet size per connected requestor and responder (bytes)
system.l2bus.pkt_size::total                 16878464                       # Cumulative packet size per connected requestor and responder (bytes)
system.l2bus.snoops                            180984                       # Total snoops (count)
system.l2bus.snoopTraffic                     4203584                       # Total snoop traffic (bytes)
system.l2bus.snoop_fanout::samples             378798                       # Request fanout histogram
system.l2bus.snoop_fanout::mean              0.000671                       # Request fanout histogram
system.l2bus.snoop_fanout::stdev             0.025886                       # Request fanout histogram
system.l2bus.snoop_fanout::underflows               0      0.00%      0.00% # Request fanout histogram
system.l2bus.snoop_fanout::0                   378544     99.93%     99.93% # Request fanout histogram
system.l2bus.snoop_fanout::1                      254      0.07%    100.00% # Request fanout histogram
system.l2bus.snoop_fanout::2                        0      0.00%    100.00% # Request fanout histogram
system.l2bus.snoop_fanout::overflows                0      0.00%    100.00% # Request fanout histogram
system.l2bus.snoop_fanout::min_value                0                       # Request fanout histogram
system.l2bus.snoop_fanout::max_value                1                       # Request fanout histogram
system.l2bus.snoop_fanout::total               378798                       # Request fanout histogram
system.l2bus.power_state.pwrStateResidencyTicks::UNDEFINED  16240390000                       # Cumulative time (in ticks) in various power states
system.l2bus.reqLayer0.occupancy            526191000                       # Layer occupancy (ticks)
system.l2bus.reqLayer0.utilization                3.2                       # Layer utilization (%)
system.l2bus.respLayer0.occupancy             1812000                       # Layer occupancy (ticks)
system.l2bus.respLayer0.utilization               0.0                       # Layer utilization (%)
system.l2bus.respLayer1.occupancy           591627000                       # Layer occupancy (ticks)
system.l2bus.respLayer1.utilization               3.6                       # Layer utilization (%)
system.l2cache.demand_hits::.cpu.inst             135                       # number of demand (read+write) hits
system.l2cache.demand_hits::.cpu.data             324                       # number of demand (read+write) hits
system.l2cache.demand_hits::total                 459                       # number of demand (read+write) hits
system.l2cache.overall_hits::.cpu.inst            135                       # number of overall hits
system.l2cache.overall_hits::.cpu.data            324                       # number of overall hits
system.l2cache.overall_hits::total                459                       # number of overall hits
system.l2cache.demand_misses::.cpu.inst           470                       # number of demand (read+write) misses
system.l2cache.demand_misses::.cpu.data        196885                       # number of demand (read+write) misses
system.l2cache.demand_misses::total            197355                       # number of demand (read+write) misses
system.l2cache.overall_misses::.cpu.inst          470                       # number of overall misses
system.l2cache.overall_misses::.cpu.data       196885                       # number of overall misses
system.l2cache.overall_misses::total           197355                       # number of overall misses
system.l2cache.demand_miss_latency::.cpu.inst     45613000                       # number of demand (read+write) miss cycles
system.l2cache.demand_miss_latency::.cpu.data  19500152000                       # number of demand (read+write) miss cycles
system.l2cache.demand_miss_latency::total  19545765000                       # number of demand (read+write) miss cycles
system.l2cache.overall_miss_latency::.cpu.inst     45613000                       # number of overall miss cycles
system.l2cache.overall_miss_latency::.cpu.data  19500152000                       # number of overall miss cycles
system.l2cache.overall_miss_latency::total  19545765000                       # number of overall miss cycles
system.l2cache.demand_accesses::.cpu.inst          605                       # number of demand (read+write) accesses
system.l2cache.demand_accesses::.cpu.data       197209                       # number of demand (read+write) accesses
system.l2cache.demand_accesses::total          197814                       # number of demand (read+write) accesses
system.l2cache.overall_accesses::.cpu.inst          605                       # number of overall (read+write) accesses
system.l2cache.overall_accesses::.cpu.data       197209                       # number of overall (read+write) accesses
system.l2cache.overall_accesses::total         197814                       # number of overall (read+write) accesses
system.l2cache.demand_miss_rate::.cpu.inst     0.776860                       # miss rate for demand accesses
system.l2cache.demand_miss_rate::.cpu.data     0.998357                       # miss rate for demand accesses
system.l2cache.demand_miss_rate::total       0.997680                       # miss rate for demand accesses
system.l2cache.overall_miss_rate::.cpu.inst     0.776860                       # miss rate for overall accesses
system.l2cache.overall_miss_rate::.cpu.data     0.998357                       # miss rate for overall accesses
system.l2cache.overall_miss_rate::total      0.997680                       # miss rate for overall accesses
system.l2cache.demand_avg_miss_latency::.cpu.inst 97048.936170                       # average overall miss latency
system.l2cache.demand_avg_miss_latency::.cpu.data 99043.360337                       # average overall miss latency
system.l2cache.demand_avg_miss_latency::total 99038.610626                       # average overall miss latency
system.l2cache.overall_avg_miss_latency::.cpu.inst 97048.936170                       # average overall miss latency
system.l2cache.overall_avg_miss_latency::.cpu.data 99043.360337                       # average overall miss latency
system.l2cache.overall_avg_miss_latency::total 99038.610626                       # average overall miss latency
system.l2cache.blocked_cycles::no_mshrs             0                       # number of cycles access was blocked
system.l2cache.blocked_cycles::no_targets            0                       # number of cycles access was blocked
system.l2cache.blocked::no_mshrs                    0                       # number of cycles access was blocked
system.l2cache.blocked::no_targets                  0                       # number of cycles access was blocked
system.l2cache.avg_blocked_cycles::no_mshrs          nan                       # average number of cycles each access was blocked
system.l2cache.avg_blocked_cycles::no_targets          nan                       # average number of cycles each access was blocked
system.l2cache.writebacks::.writebacks          65681                       # number of writebacks
system.l2cache.writebacks::total                65681                       # number of writebacks
system.l2cache.demand_mshr_misses::.cpu.inst          470                       # number of demand (read+write) MSHR misses
[...]
system.mem_ctrl.requestorReadRate::.cpu.data 775756739.831986784935                       # Per-requestor bytes read from memory rate (Bytes/sec)
system.mem_ctrl.requestorWriteRate::.writebacks 258768169.976213634014                       # Per-requestor bytes write to memory rate (Bytes/sec)
system.mem_ctrl.requestorReadAccesses::.cpu.inst          469                       # Per-requestor read serviced memory accesses
system.mem_ctrl.requestorReadAccesses::.cpu.data       196885                       # Per-requestor read serviced memory accesses
system.mem_ctrl.requestorWriteAccesses::.writebacks        65681                       # Per-requestor write serviced memory accesses
system.mem_ctrl.requestorReadTotalLat::.cpu.inst     12156750                       # Per-requestor read total memory access latency
system.mem_ctrl.requestorReadTotalLat::.cpu.data   5468837750                       # Per-requestor read total memory access latency
system.mem_ctrl.requestorWriteTotalLat::.writebacks 200158421000                       # Per-requestor write total memory access latency
system.mem_ctrl.requestorReadAvgLat::.cpu.inst     25920.58                       # Per-requestor read average memory access latency
system.mem_ctrl.requestorReadAvgLat::.cpu.data     27776.81                       # Per-requestor read average memory access latency
system.mem_ctrl.requestorWriteAvgLat::.writebacks   3047432.61                       # Per-requestor write average memory access latency
system.mem_ctrl.dram.bytes_read::.cpu.inst        30016                       # Number of bytes read from this memory
system.mem_ctrl.dram.bytes_read::.cpu.data     12600640                       # Number of bytes read from this memory
system.mem_ctrl.dram.bytes_read::total       12630656                       # Number of bytes read from this memory
system.mem_ctrl.dram.bytes_inst_read::.cpu.inst        30016                       # Number of instructions bytes read from this memory
system.mem_ctrl.dram.bytes_inst_read::total        30016                       # Number of instructions bytes read from this memory
system.mem_ctrl.dram.bytes_written::.writebacks      4203584                       # Number of bytes written to this memory
system.mem_ctrl.dram.bytes_written::total      4203584                       # Number of bytes written to this memory
system.mem_ctrl.dram.num_reads::.cpu.inst          469                       # Number of read requests responded to by this memory
system.mem_ctrl.dram.num_reads::.cpu.data       196885                       # Number of read requests responded to by this memory
system.mem_ctrl.dram.num_reads::total          197354                       # Number of read requests responded to by this memory
system.mem_ctrl.dram.num_writes::.writebacks        65681                       # Number of write requests responded to by this memory
system.mem_ctrl.dram.num_writes::total          65681                       # Number of write requests responded to by this memory
system.mem_ctrl.dram.bw_read::.cpu.inst       1848231                       # Total read bandwidth from this memory (bytes/s)
system.mem_ctrl.dram.bw_read::.cpu.data     775882845                       # Total read bandwidth from this memory (bytes/s)
system.mem_ctrl.dram.bw_read::total         777731077                       # Total read bandwidth from this memory (bytes/s)
system.mem_ctrl.dram.bw_inst_read::.cpu.inst      1848231                       # Instruction read bandwidth from this memory (bytes/s)
system.mem_ctrl.dram.bw_inst_read::total      1848231                       # Instruction read bandwidth from this memory (bytes/s)
system.mem_ctrl.dram.bw_write::.writebacks    258835163                       # Write bandwidth from this memory (bytes/s)
system.mem_ctrl.dram.bw_write::total        258835163                       # Write bandwidth from this memory (bytes/s)
system.mem_ctrl.dram.bw_total::.writebacks    258835163                       # Total bandwidth to/from this memory (bytes/s)
system.mem_ctrl.dram.bw_total::.cpu.inst      1848231                       # Total bandwidth to/from this memory (bytes/s)
system.mem_ctrl.dram.bw_total::.cpu.data    775882845                       # Total bandwidth to/from this memory (bytes/s)
system.mem_ctrl.dram.bw_total::total       1036566240                       # Total bandwidth to/from this memory (bytes/s)
system.mem_ctrl.dram.readBursts                197322                       # Number of DRAM read bursts
system.mem_ctrl.dram.writeBursts                65664                       # Number of DRAM write bursts
system.mem_ctrl.dram.perBankRdBursts::0         12387                       # Per bank write bursts
system.mem_ctrl.dram.perBankRdBursts::1         12345                       # Per bank write bursts
system.mem_ctrl.dram.perBankRdBursts::2         12341                       # Per bank write bursts
system.mem_ctrl.dram.perBankRdBursts::3         12302                       # Per bank write bursts
system.mem_ctrl.dram.perBankRdBursts::4         12321                       # Per bank write bursts
system.mem_ctrl.dram.perBankRdBursts::5         12305                       # Per bank write bursts
system.mem_ctrl.dram.perBankRdBursts::6         12360                       # Per bank write bursts
system.mem_ctrl.dram.perBankRdBursts::7         12330                       # Per bank write bursts
system.mem_ctrl.dram.perBankRdBursts::8         12302                       # Per bank write bursts
system.mem_ctrl.dram.perBankRdBursts::9         12299                       # Per bank write bursts
system.mem_ctrl.dram.perBankRdBursts::10        12300                       # Per bank write bursts
system.mem_ctrl.dram.perBankRdBursts::11        12321                       # Per bank write bursts
system.mem_ctrl.dram.perBankRdBursts::12        12351                       # Per bank write bursts
system.mem_ctrl.dram.perBankRdBursts::13        12302                       # Per bank write bursts
system.mem_ctrl.dram.perBankRdBursts::14        12359                       # Per bank write bursts
system.mem_ctrl.dram.perBankRdBursts::15        12397                       # Per bank write bursts
system.mem_ctrl.dram.perBankWrBursts::0          4116                       # Per bank write bursts
system.mem_ctrl.dram.perBankWrBursts::1          4097                       # Per bank write bursts
system.mem_ctrl.dram.perBankWrBursts::2          4122                       # Per bank write bursts
system.mem_ctrl.dram.perBankWrBursts::3          4101                       # Per bank write bursts
system.mem_ctrl.dram.perBankWrBursts::4          4129                       # Per bank write bursts
system.mem_ctrl.dram.perBankWrBursts::5          4096                       # Per bank write bursts
system.mem_ctrl.dram.perBankWrBursts::6          4096                       # Per bank write bursts
system.mem_ctrl.dram.perBankWrBursts::7          4096                       # Per bank write bursts
system.mem_ctrl.dram.perBankWrBursts::8          4096                       # Per bank write bursts
system.mem_ctrl.dram.perBankWrBursts::9          4096                       # Per bank write bursts
system.mem_ctrl.dram.perBankWrBursts::10         4096                       # Per bank write bursts
system.mem_ctrl.dram.perBankWrBursts::11         4096                       # Per bank write bursts
system.mem_ctrl.dram.perBankWrBursts::12         4096                       # Per bank write bursts
system.mem_ctrl.dram.perBankWrBursts::13         4096                       # Per bank write bursts
system.mem_ctrl.dram.perBankWrBursts::14         4096                       # Per bank write bursts
system.mem_ctrl.dram.perBankWrBursts::15         4139                       # Per bank write bursts
system.mem_ctrl.dram.totQLat               1781207000                       # Total ticks spent queuing
system.mem_ctrl.dram.totBusLat              986610000                       # Total ticks spent in databus transfers
system.mem_ctrl.dram.totMemAccLat          5480994500                       # Total ticks spent from burst creation until serviced by the DRAM
system.mem_ctrl.dram.avgQLat                  9026.91                       # Average queueing delay per DRAM burst
system.mem_ctrl.dram.avgBusLat                5000.00                       # Average bus latency per DRAM burst
system.mem_ctrl.dram.avgMemAccLat            27776.91                       # Average memory access latency per DRAM burst
system.mem_ctrl.dram.readRowHits               181422                       # Number of row buffer hits during reads
system.mem_ctrl.dram.writeRowHits               59928                       # Number of row buffer hits during writes
system.mem_ctrl.dram.readRowHitRate             91.94                       # Row buffer hit rate for reads
system.mem_ctrl.dram.writeRowHitRate            91.26                       # Row buffer hit rate for writes
system.mem_ctrl.dram.bytesPerActivate::samples        21624                       # Bytes accessed per row activation
system.mem_ctrl.dram.bytesPerActivate::mean   778.216796                       # Bytes accessed per row activation
system.mem_ctrl.dram.bytesPerActivate::gmean   625.355320                       # Bytes accessed per row activation
system.mem_ctrl.dram.bytesPerActivate::stdev   349.766377                       # Bytes accessed per row activation
system.mem_ctrl.dram.bytesPerActivate::0-127         1143      5.29%      5.29% # Bytes accessed per row activation
system.mem_ctrl.dram.bytesPerActivate::128-255         1955      9.04%     14.33% # Bytes accessed per row activation
system.mem_ctrl.dram.bytesPerActivate::256-383         1240      5.73%     20.06% # Bytes accessed per row activation
system.mem_ctrl.dram.bytesPerActivate::384-511         1114      5.15%     25.21% # Bytes accessed per row activation
system.mem_ctrl.dram.bytesPerActivate::512-639          726      3.36%     28.57% # Bytes accessed per row activation
system.mem_ctrl.dram.bytesPerActivate::640-767          936      4.33%     32.90% # Bytes accessed per row activation
system.mem_ctrl.dram.bytesPerActivate::768-895          707      3.27%     36.17% # Bytes accessed per row activation
system.mem_ctrl.dram.bytesPerActivate::896-1023         1131      5.23%     41.40% # Bytes accessed per row activation
system.mem_ctrl.dram.bytesPerActivate::1024-1151        12672     58.60%    100.00% # Bytes accessed per row activation
system.mem_ctrl.dram.bytesPerActivate::total        21624                       # Bytes accessed per row activation
system.mem_ctrl.dram.bytesRead               12628608                       # Total number of bytes read from DRAM
system.mem_ctrl.dram.bytesWritten             4202496                       # Total number of bytes written to DRAM
system.mem_ctrl.dram.avgRdBW               777.604971                       # Average DRAM read bandwidth in MiBytes/s
system.mem_ctrl.dram.avgWrBW               258.768170                       # Average DRAM write bandwidth in MiBytes/s
system.mem_ctrl.dram.peakBW                  12800.00                       # Theoretical peak bandwidth in MiByte/s
system.mem_ctrl.dram.busUtil                     8.10                       # Data bus utilization in percentage
system.mem_ctrl.dram.busUtilRead                 6.08                       # Data bus utilization in percentage for reads
system.mem_ctrl.dram.busUtilWrite                2.02                       # Data bus utilization in percentage for writes
system.mem_ctrl.dram.pageHitRate                91.77                       # Row buffer hit rate, read and write combined
system.mem_ctrl.dram.power_state.pwrStateResidencyTicks::UNDEFINED  16240390000                       # Cumulative time (in ticks) in various power states
system.mem_ctrl.dram.rank0.actEnergy         77925960                       # Energy for activate commands per rank (pJ)
system.mem_ctrl.dram.rank0.preEnergy         41395860                       # Energy for precharge commands per rank (pJ)
system.mem_ctrl.dram.rank0.readEnergy       704653740                       # Energy for read commands per rank (pJ)
system.mem_ctrl.dram.rank0.writeEnergy      171492660                       # Energy for write commands per rank (pJ)
system.mem_ctrl.dram.rank0.refreshEnergy 1281524400.000000                       # Energy for refresh commands per rank (pJ)
system.mem_ctrl.dram.rank0.actBackEnergy   4000346070                       # Energy for active background per rank (pJ)
system.mem_ctrl.dram.rank0.preBackEnergy   2867597280                       # Energy for precharge background per rank (pJ)
system.mem_ctrl.dram.rank0.actPowerDownEnergy            0                       # Energy for active power-down per rank (pJ)
system.mem_ctrl.dram.rank0.prePowerDownEnergy            0                       # Energy for precharge power-down per rank (pJ)
system.mem_ctrl.dram.rank0.selfRefreshEnergy            0                       # Energy for self refresh per rank (pJ)
system.mem_ctrl.dram.rank0.totalEnergy     9144935970                       # Total energy per rank (pJ)
system.mem_ctrl.dram.rank0.averagePower    563.098298                       # Core power per rank (mW)
system.mem_ctrl.dram.rank0.totalIdleTime            0                       # Total Idle time Per DRAM Rank
system.mem_ctrl.dram.rank0.pwrStateTime::IDLE   7371914750                       # Time in different power states
system.mem_ctrl.dram.rank0.pwrStateTime::REF    542100000                       # Time in different power states
system.mem_ctrl.dram.rank0.pwrStateTime::SREF            0                       # Time in different power states
system.mem_ctrl.dram.rank0.pwrStateTime::PRE_PDN            0                       # Time in different power states
system.mem_ctrl.dram.rank0.pwrStateTime::ACT   8326375250                       # Time in different power states
system.mem_ctrl.dram.rank0.pwrStateTime::ACT_PDN            0                       # Time in different power states
system.mem_ctrl.dram.rank1.actEnergy         76555080                       # Energy for activate commands per rank (pJ)
system.mem_ctrl.dram.rank1.preEnergy         40667220                       # Energy for precharge commands per rank (pJ)
system.mem_ctrl.dram.rank1.readEnergy       704225340                       # Energy for read commands per rank (pJ)
system.mem_ctrl.dram.rank1.writeEnergy      171273420                       # Energy for write commands per rank (pJ)
system.mem_ctrl.dram.rank1.refreshEnergy 1281524400.000000                       # Energy for refresh commands per rank (pJ)
system.mem_ctrl.dram.rank1.actBackEnergy   4009581210                       # Energy for active background per rank (pJ)
system.mem_ctrl.dram.rank1.preBackEnergy   2859820320                       # Energy for precharge background per rank (pJ)
system.mem_ctrl.dram.rank1.actPowerDownEnergy            0                       # Energy for active power-down per rank (pJ)
system.mem_ctrl.dram.rank1.prePowerDownEnergy            0                       # Energy for precharge power-down per rank (pJ)
system.mem_ctrl.dram.rank1.selfRefreshEnergy            0                       # Energy for self refresh per rank (pJ)
system.mem_ctrl.dram.rank1.totalEnergy     9143646990                       # Total energy per rank (pJ)
system.mem_ctrl.dram.rank1.averagePower    563.018929                       # Core power per rank (mW)
system.mem_ctrl.dram.rank1.totalIdleTime            0                       # Total Idle time Per DRAM Rank
system.mem_ctrl.dram.rank1.pwrStateTime::IDLE   7351531750                       # Time in different power states
system.mem_ctrl.dram.rank1.pwrStateTime::REF    542100000                       # Time in different power states
system.mem_ctrl.dram.rank1.pwrStateTime::SREF            0                       # Time in different power states
system.mem_ctrl.dram.rank1.pwrStateTime::PRE_PDN            0                       # Time in different power states
system.mem_ctrl.dram.rank1.pwrStateTime::ACT   8346758250                       # Time in different power states
system.mem_ctrl.dram.rank1.pwrStateTime::ACT_PDN            0                       # Time in different power states
system.mem_ctrl.power_state.pwrStateResidencyTicks::UNDEFINED  16240390000                       # Cumulative time (in ticks) in various power states
system.membus.trans_dist::ReadResp             131695                       # Transaction distribution
system.membus.trans_dist::WritebackDirty        65681                       # Transaction distribution
system.membus.trans_dist::CleanEvict           115085                       # Transaction distribution
system.membus.trans_dist::ReadExReq             65659                       # Transaction distribution
system.membus.trans_dist::ReadExResp            65659                       # Transaction distribution
system.membus.trans_dist::ReadSharedReq        131695                       # Transaction distribution
system.membus.pkt_count_system.l2cache.mem_side_port::system.mem_ctrl.port       575474                       # Packet count per connected requestor and responder (bytes)
system.membus.pkt_count_system.l2cache.mem_side_port::total       575474                       # Packet count per connected requestor and responder (bytes)
system.membus.pkt_count::total                 575474                       # Packet count per connected requestor and responder (bytes)
system.membus.pkt_size_system.l2cache.mem_side_port::system.mem_ctrl.port     16834240                       # Cumulative packet size per connected requestor and responder (bytes)
system.membus.pkt_size_system.l2cache.mem_side_port::total     16834240                       # Cumulative packet size per connected requestor and responder (bytes)
system.membus.pkt_size::total                16834240                       # Cumulative packet size per connected requestor and responder (bytes)
system.membus.snoops                                0                       # Total snoops (count)
system.membus.snoopTraffic                          0                       # Total snoop traffic (bytes)
system.membus.snoop_fanout::samples            197354                       # Request fanout histogram
system.membus.snoop_fanout::mean                    0                       # Request fanout histogram
system.membus.snoop_fanout::stdev                   0                       # Request fanout histogram
system.membus.snoop_fanout::underflows              0      0.00%      0.00% # Request fanout histogram
system.membus.snoop_fanout::0                  197354    100.00%    100.00% # Request fanout histogram
system.membus.snoop_fanout::1                       0      0.00%    100.00% # Request fanout histogram
system.membus.snoop_fanout::overflows               0      0.00%    100.00% # Request fanout histogram
system.membus.snoop_fanout::min_value               0                       # Request fanout histogram
system.membus.snoop_fanout::max_value               0                       # Request fanout histogram
system.membus.snoop_fanout::total              197354                       # Request fanout histogram
system.membus.power_state.pwrStateResidencyTicks::UNDEFINED  16240390000                       # Cumulative time (in ticks) in various power states
system.membus.reqLayer2.occupancy           640844000                       # Layer occupancy (ticks)
system.membus.reqLayer2.utilization               3.9                       # Layer utilization (%)
system.membus.respLayer0.occupancy         1023170250                       # Layer occupancy (ticks)
system.membus.respLayer0.utilization              6.3                       # Layer utilization (%)

---------- End Simulation Statistics   ----------
