
---------- Begin Simulation Statistics ----------
final_tick                                 1041541000                       # Number of ticks from beginning of simulation (restored from checkpoints and never reset)
host_inst_rate                                 253897                       # Simulator instruction rate (inst/s)
host_mem_usage                                 664076                       # Number of bytes of host memory used
host_op_rate                                   469941                       # Simulator op (including micro ops) rate (op/s)
host_seconds                                     0.79                       # Real time elapsed on the host
host_tick_rate                             1322999070                       # Simulator tick rate (ticks/s)
sim_freq                                 1000000000000                       # Frequency of simulated ticks
sim_insts                                      199816                       # Number of instructions simulated
sim_ops                                        369942                       # Number of ops (including micro ops) simulated
sim_seconds                                  0.001042                       # Number of seconds simulated
sim_ticks                                  1041541000                       # Number of ticks simulated
system.cpu.Branches                             44375                       # Number of branches fetched
system.cpu.committedInsts                      199816                       # Number of instructions committed
system.cpu.committedOps                        369942                       # Number of ops (including micro ops) committed
system.cpu.idle_fraction                     0.000000                       # Percentage of idle cycles
system.cpu.not_idle_fraction                 1.000000                       # Percentage of non-idle cycles
system.cpu.numCycles                          1041541                       # number of cpu cycles simulated
system.cpu.numWorkItemsCompleted                    0                       # number of work items this cpu completed
system.cpu.numWorkItemsStarted                      0                       # number of work items this cpu started
system.cpu.num_busy_cycles               1041540.999000                       # Number of busy cycles
system.cpu.num_cc_register_reads               232213                       # number of times the CC registers were read
system.cpu.num_cc_register_writes              146140                       # number of times the CC registers were written
system.cpu.num_conditional_control_insts        36729                       # number of instructions that are conditional controls
system.cpu.num_fp_alu_accesses                   7716                       # Number of float alu accesses
system.cpu.num_fp_insts                          7716                       # number of float instructions
system.cpu.num_fp_register_reads                11164                       # number of times the floating registers were read
system.cpu.num_fp_register_writes                5768                       # number of times the floating registers were written
system.cpu.num_func_calls                        2468                       # number of times a function call or return occured
system.cpu.num_idle_cycles                   0.001000                       # Number of idle cycles
system.cpu.num_int_alu_accesses                362874                       # Number of integer alu accesses
system.cpu.num_int_insts                       362874                       # number of integer instructions
system.cpu.num_int_register_reads              700347                       # number of times the integer registers were read
system.cpu.num_int_register_writes             303572                       # number of times the integer registers were written
system.cpu.num_load_insts                       45673                       # Number of load instructions
system.cpu.num_mem_refs                         62649                       # number of memory refs
system.cpu.num_store_insts                      16976                       # Number of store instructions
system.cpu.num_vec_alu_accesses                     0                       # Number of vector alu accesses
system.cpu.num_vec_insts                            0                       # number of vector instructions
system.cpu.num_vec_register_reads                   0                       # number of times the vector registers were read
system.cpu.num_vec_register_writes                  0                       # number of times the vector registers were written
system.cpu.op_class::No_OpClass                  2887      0.78%      0.78% # Class of executed instruction
system.cpu.op_class::IntAlu                    298390     80.63%     81.41% # Class of executed instruction
system.cpu.op_class::IntMult                       16      0.00%     81.42% # Class of executed instruction
system.cpu.op_class::IntDiv                      1378      0.37%     81.79% # Class of executed instruction
system.cpu.op_class::FloatAdd                     464      0.13%     81.92% # Class of executed instruction
system.cpu.op_class::FloatCmp                       0      0.00%     81.92% # Class of executed instruction
system.cpu.op_class::FloatCvt                      80      0.02%     81.94% # Class of executed instruction
system.cpu.op_class::FloatMult                      0      0.00%     81.94% # Class of executed instruction
system.cpu.op_class::FloatMultAcc                   0      0.00%     81.94% # Class of executed instruction
system.cpu.op_class::FloatDiv                       0      0.00%     81.94% # Class of executed instruction
system.cpu.op_class::FloatMisc                      0      0.00%     81.94% # Class of executed instruction
system.cpu.op_class::FloatSqrt                      0      0.00%     81.94% # Class of executed instruction
system.cpu.op_class::SimdAdd                      308      0.08%     82.02% # Class of executed instruction
system.cpu.op_class::SimdAddAcc                     0      0.00%     82.02% # Class of executed instruction
system.cpu.op_class::SimdAlu                     1115      0.30%     82.32% # Class of executed instruction
system.cpu.op_class::SimdCmp                       12      0.00%     82.32% # Class of executed instruction
system.cpu.op_class::SimdCvt                     1062      0.29%     82.61% # Class of executed instruction
system.cpu.op_class::SimdMisc                    1574      0.43%     83.04% # Class of executed instruction
system.cpu.op_class::SimdMult                       0      0.00%     83.04% # Class of executed instruction
system.cpu.op_class::SimdMultAcc                    0      0.00%     83.04% # Class of executed instruction
system.cpu.op_class::SimdShift                    123      0.03%     83.07% # Class of executed instruction
system.cpu.op_class::SimdShiftAcc                   0      0.00%     83.07% # Class of executed instruction
system.cpu.op_class::SimdDiv                        0      0.00%     83.07% # Class of executed instruction
system.cpu.op_class::SimdSqrt                       0      0.00%     83.07% # Class of executed instruction
system.cpu.op_class::SimdFloatAdd                   0      0.00%     83.07% # Class of executed instruction
system.cpu.op_class::SimdFloatAlu                   0      0.00%     83.07% # Class of executed instruction
system.cpu.op_class::SimdFloatCmp                   0      0.00%     83.07% # Class of executed instruction
system.cpu.op_class::SimdFloatCvt                   0      0.00%     83.07% # Class of executed instruction
system.cpu.op_class::SimdFloatDiv                   0      0.00%     83.07% # Class of executed instruction
system.cpu.op_class::SimdFloatMisc                  0      0.00%     83.07% # Class of executed instruction
system.cpu.op_class::SimdFloatMult                  0      0.00%     83.07% # Class of executed instruction
system.cpu.op_class::SimdFloatMultAcc               0      0.00%     83.07% # Class of executed instruction
system.cpu.op_class::SimdFloatSqrt                  0      0.00%     83.07% # Class of executed instruction
system.cpu.op_class::SimdReduceAdd                  0      0.00%     83.07% # Class of executed instruction
system.cpu.op_class::SimdReduceAlu                  0      0.00%     83.07% # Class of executed instruction
system.cpu.op_class::SimdReduceCmp                  0      0.00%     83.07% # Class of executed instruction
system.cpu.op_class::SimdFloatReduceAdd             0      0.00%     83.07% # Class of executed instruction
system.cpu.op_class::SimdFloatReduceCmp             0      0.00%     83.07% # Class of executed instruction
system.cpu.op_class::SimdAes                        0      0.00%     83.07% # Class of executed instruction
system.cpu.op_class::SimdAesMix                     0      0.00%     83.07% # Class of executed instruction
system.cpu.op_class::SimdSha1Hash                   0      0.00%     83.07% # Class of executed instruction
system.cpu.op_class::SimdSha1Hash2                  0      0.00%     83.07% # Class of executed instruction
system.cpu.op_class::SimdSha256Hash                 0      0.00%     83.07% # Class of executed instruction
system.cpu.op_class::SimdSha256Hash2                0      0.00%     83.07% # Class of executed instruction
system.cpu.op_class::SimdShaSigma2                  0      0.00%     83.07% # Class of executed instruction
system.cpu.op_class::SimdShaSigma3                  0      0.00%     83.07% # Class of executed instruction
system.cpu.op_class::SimdPredAlu                    0      0.00%     83.07% # Class of executed instruction
system.cpu.op_class::MemRead                    44489     12.02%     95.09% # Class of executed instruction
system.cpu.op_class::MemWrite                   15706      4.24%     99.34% # Class of executed instruction
system.cpu.op_class::FloatMemRead                1184      0.32%     99.66% # Class of executed instruction
system.cpu.op_class::FloatMemWrite               1270      0.34%    100.00% # Class of executed instruction
system.cpu.op_class::IprAccess                      0      0.00%    100.00% # Class of executed instruction
system.cpu.op_class::InstPrefetch                   0      0.00%    100.00% # Class of executed instruction
system.cpu.op_class::total                     370058                       # Class of executed instruction
system.cpu.workload.numSyscalls                    58                       # Number of system calls
system.l2bus.snoop_filter.hit_multi_requests            0                       # Number of requests hitting in the snoop filter with multiple (>1) holders of the requested data.
system.l2bus.snoop_filter.hit_multi_snoops            0                       # Number of snoops hitting in the snoop filter with multiple (>1) holders of the requested data.
system.l2bus.snoop_filter.hit_single_requests         3570                       # Number of requests hitting in the snoop filter with a single holder of the requested data.
system.l2bus.snoop_filter.hit_single_snoops          183                       # Number of snoops hitting in the snoop filter with a single holder of the requested data.
system.l2bus.snoop_filter.tot_requests           8418                       # Total number of requests made to the snoop filter.
system.l2bus.snoop_filter.tot_snoops              183                       # Total number of snoops made to the snoop filter.
system.membus.snoop_filter.hit_multi_requests            0                       # Number of requests hitting in the snoop filter with multiple (>1) holders of the requested data.
system.membus.snoop_filter.hit_multi_snoops            0                       # Number of snoops hitting in the snoop filter with multiple (>1) holders of the requested data.
system.membus.snoop_filter.hit_single_requests          229                       # Number of requests hitting in the snoop filter with a single holder of the requested data.
system.membus.snoop_filter.hit_single_snoops            0                       # Number of snoops hitting in the snoop filter with a single holder of the requested data.
system.membus.snoop_filter.tot_requests          3831                       # Total number of requests made to the snoop filter.
system.membus.snoop_filter.tot_snoops               0                       # Total number of snoops made to the snoop filter.
system.clk_domain.clock                          1000                       # Clock period in ticks
system.clk_domain.voltage_domain.voltage            1                       # Voltage in Volts
system.cpu.dcache.demand_hits::.cpu.data        59754                       # number of demand (read+write) hits
system.cpu.dcache.demand_hits::total            59754                       # number of demand (read+write) hits
system.cpu.dcache.overall_hits::.cpu.data        59754                       # number of overall hits
system.cpu.dcache.overall_hits::total           59754                       # number of overall hits
system.cpu.dcache.demand_misses::.cpu.data         2902                       # number of demand (read+write) misses
system.cpu.dcache.demand_misses::total           2902                       # number of demand (read+write) misses
system.cpu.dcache.overall_misses::.cpu.data         2902                       # number of overall misses
system.cpu.dcache.overall_misses::total          2902                       # number of overall misses
system.cpu.dcache.demand_miss_latency::.cpu.data    272587000                       # number of demand (read+write) miss cycles
system.cpu.dcache.demand_miss_latency::total    272587000                       # number of demand (read+write) miss cycles
system.cpu.dcache.overall_miss_latency::.cpu.data    272587000                       # number of overall miss cycles
system.cpu.dcache.overall_miss_latency::total    272587000                       # number of overall miss cycles
system.cpu.dcache.demand_accesses::.cpu.data        62656                       # number of demand (read+write) accesses
system.cpu.dcache.demand_accesses::total        62656                       # number of demand (read+write) accesses
system.cpu.dcache.overall_accesses::.cpu.data        62656                       # number of overall (read+write) accesses
system.cpu.dcache.overall_accesses::total        62656                       # number of overall (read+write) accesses
system.cpu.dcache.demand_miss_rate::.cpu.data     0.046316                       # miss rate for demand accesses
system.cpu.dcache.demand_miss_rate::total     0.046316                       # miss rate for demand accesses
system.cpu.dcache.overall_miss_rate::.cpu.data     0.046316                       # miss rate for overall accesses
system.cpu.dcache.overall_miss_rate::total     0.046316                       # miss rate for overall accesses
system.cpu.dcache.demand_avg_miss_latency::.cpu.data 93930.737422                       # average overall miss latency
system.cpu.dcache.demand_avg_miss_latency::total 93930.737422                       # average overall miss latency
system.cpu.dcache.overall_avg_miss_latency::.cpu.data 93930.737422                       # average overall miss latency
system.cpu.dcache.overall_avg_miss_latency::total 93930.737422                       # average overall miss latency
system.cpu.dcache.blocked_cycles::no_mshrs            0                       # number of cycles access was blocked
system.cpu.dcache.blocked_cycles::no_targets            0                       # number of cycles access was blocked
system.cpu.dcache.blocked::no_mshrs                 0                       # number of cycles access was blocked
system.cpu.dcache.blocked::no_targets               0                       # number of cycles access was blocked
system.cpu.dcache.avg_blocked_cycles::no_mshrs          nan                       # average number of cycles each access was blocked
system.cpu.dcache.avg_blocked_cycles::no_targets          nan                       # average number of cycles each access was blocked
system.cpu.dcache.writebacks::.writebacks          570                       # number of writebacks
system.cpu.dcache.writebacks::total               570                       # number of writebacks
system.cpu.dcache.demand_mshr_misses::.cpu.data         2902                       # number of demand (read+write) MSHR misses
system.cpu.dcache.demand_mshr_misses::total         2902                       # number of demand (read+write) MSHR misses
system.cpu.dcache.overall_mshr_misses::.cpu.data         2902                       # number of overall MSHR misses
system.cpu.dcache.overall_mshr_misses::total         2902                       # number of overall MSHR misses
system.cpu.dcache.demand_mshr_miss_latency::.cpu.data    266783000                       # number of demand (read+write) MSHR miss cycles
system.cpu.dcache.demand_mshr_miss_latency::total    266783000                       # number of demand (read+write) MSHR miss cycles
system.cpu.dcache.overall_mshr_miss_latency::.cpu.data    266783000                       # number of overall MSHR miss cycles
system.cpu.dcache.overall_mshr_miss_latency::total    266783000                       # number of overall MSHR miss cycles
system.cpu.dcache.demand_mshr_miss_rate::.cpu.data     0.046316                       # mshr miss rate for demand accesses
system.cpu.dcache.demand_mshr_miss_rate::total     0.046316                       # mshr miss rate for demand accesses
system.cpu.dcache.overall_mshr_miss_rate::.cpu.data     0.046316                       # mshr miss rate for overall accesses
system.cpu.dcache.overall_mshr_miss_rate::total     0.046316                       # mshr miss rate for overall accesses
system.cpu.dcache.demand_avg_mshr_miss_latency::.cpu.data 91930.737422                       # average overall mshr miss latency
system.cpu.dcache.demand_avg_mshr_miss_latency::total 91930.737422                       # average overall mshr miss latency
system.cpu.dcache.overall_avg_mshr_miss_latency::.cpu.data 91930.737422                       # average overall mshr miss latency
system.cpu.dcache.overall_avg_mshr_miss_latency::total 91930.737422                       # average overall mshr miss latency
system.cpu.dcache.replacements                   1878                       # number of replacements
system.cpu.dcache.ReadReq_hits::.cpu.data        43405                       # number of ReadReq hits
system.cpu.dcache.ReadReq_hits::total           43405                       # number of ReadReq hits
system.cpu.dcache.ReadReq_misses::.cpu.data         2276                       # number of ReadReq misses
system.cpu.dcache.ReadReq_misses::total          2276                       # number of ReadReq misses
system.cpu.dcache.ReadReq_miss_latency::.cpu.data    214867000                       # number of ReadReq miss cycles
system.cpu.dcache.ReadReq_miss_latency::total    214867000                       # number of ReadReq miss cycles
system.cpu.dcache.ReadReq_accesses::.cpu.data        45681                       # number of ReadReq accesses(hits+misses)
system.cpu.dcache.ReadReq_accesses::total        45681                       # number of ReadReq accesses(hits+misses)
system.cpu.dcache.ReadReq_miss_rate::.cpu.data     0.049824                       # miss rate for ReadReq accesses
system.cpu.dcache.ReadReq_miss_rate::total     0.049824                       # miss rate for ReadReq accesses
system.cpu.dcache.ReadReq_avg_miss_latency::.cpu.data 94405.536028                       # average ReadReq miss latency
system.cpu.dcache.ReadReq_avg_miss_latency::total 94405.536028                       # average ReadReq miss latency
system.cpu.dcache.ReadReq_mshr_misses::.cpu.data         2276                       # number of ReadReq MSHR misses
system.cpu.dcache.ReadReq_mshr_misses::total         2276                       # number of ReadReq MSHR misses
system.cpu.dcache.ReadReq_mshr_miss_latency::.cpu.data    210315000                       # number of ReadReq MSHR miss cycles
system.cpu.dcache.ReadReq_mshr_miss_latency::total    210315000                       # number of ReadReq MSHR miss cycles
system.cpu.dcache.ReadReq_mshr_miss_rate::.cpu.data     0.049824                       # mshr miss rate for ReadReq accesses
system.cpu.dcache.ReadReq_mshr_miss_rate::total     0.049824                       # mshr miss rate for ReadReq accesses
system.cpu.dcache.ReadReq_avg_mshr_miss_latency::.cpu.data 92405.536028                       # average ReadReq mshr miss latency
system.cpu.dcache.ReadReq_avg_mshr_miss_latency::total 92405.536028                       # average ReadReq mshr miss latency
system.cpu.dcache.WriteReq_hits::.cpu.data        16349                       # number of WriteReq hits
system.cpu.dcache.WriteReq_hits::total          16349                       # number of WriteReq hits
system.cpu.dcache.WriteReq_misses::.cpu.data          626                       # number of WriteReq misses
system.cpu.dcache.WriteReq_misses::total          626                       # number of WriteReq misses
system.cpu.dcache.WriteReq_miss_latency::.cpu.data     57720000                       # number of WriteReq miss cycles
system.cpu.dcache.WriteReq_miss_latency::total     57720000                       # number of WriteReq miss cycles
system.cpu.dcache.WriteReq_accesses::.cpu.data        16975                       # number of WriteReq accesses(hits+misses)
system.cpu.dcache.WriteReq_accesses::total        16975                       # number of WriteReq accesses(hits+misses)
system.cpu.dcache.WriteReq_miss_rate::.cpu.data     0.036878                       # miss rate for WriteReq accesses
system.cpu.dcache.WriteReq_miss_rate::total     0.036878                       # miss rate for WriteReq accesses
system.cpu.dcache.WriteReq_avg_miss_latency::.cpu.data 92204.472843                       # average WriteReq miss latency
system.cpu.dcache.WriteReq_avg_miss_latency::total 92204.472843                       # average WriteReq miss latency
system.cpu.dcache.WriteReq_mshr_misses::.cpu.data          626                       # number of WriteReq MSHR misses
system.cpu.dcache.WriteReq_mshr_misses::total          626                       # number of WriteReq MSHR misses
system.cpu.dcache.WriteReq_mshr_miss_latency::.cpu.data     56468000                       # number of WriteReq MSHR miss cycles
system.cpu.dcache.WriteReq_mshr_miss_latency::total     56468000                       # number of WriteReq MSHR miss cycles
system.cpu.dcache.WriteReq_mshr_miss_rate::.cpu.data     0.036878                       # mshr miss rate for WriteReq accesses
system.cpu.dcache.WriteReq_mshr_miss_rate::total     0.036878                       # mshr miss rate for WriteReq accesses
system.cpu.dcache.WriteReq_avg_mshr_miss_latency::.cpu.data 90204.472843                       # average WriteReq mshr miss latency
system.cpu.dcache.WriteReq_avg_mshr_miss_latency::total 90204.472843                       # average WriteReq mshr miss latency
system.cpu.dcache.power_state.pwrStateResidencyTicks::UNDEFINED   1041541000                       # Cumulative time (in ticks) in various power states
system.cpu.dcache.tags.tagsinuse           857.924304                       # Cycle average of tags in use
system.cpu.dcache.tags.total_refs               62656                       # Total number of references to valid blocks.
system.cpu.dcache.tags.sampled_refs              2902                       # Sample count of references to valid blocks.
system.cpu.dcache.tags.avg_refs             21.590627                       # Average number of references to valid blocks.
system.cpu.dcache.tags.warmup_cycle            218000                       # Cycle when the warmup percentage was hit.
system.cpu.dcache.tags.occ_blocks::.cpu.data   857.924304                       # Average occupied blocks per requestor
system.cpu.dcache.tags.occ_percent::.cpu.data     0.837817                       # Average percentage of cache occupancy
system.cpu.dcache.tags.occ_percent::total     0.837817                       # Average percentage of cache occupancy
system.cpu.dcache.tags.occ_task_id_blocks::1024         1024                       # Occupied blocks per task id
system.cpu.dcache.tags.age_task_id_blocks_1024::0           19                       # Occupied blocks per task id
system.cpu.dcache.tags.age_task_id_blocks_1024::1            7                       # Occupied blocks per task id
system.cpu.dcache.tags.age_task_id_blocks_1024::2          986                       # Occupied blocks per task id
system.cpu.dcache.tags.age_task_id_blocks_1024::3           12                       # Occupied blocks per task id
system.cpu.dcache.tags.occ_task_id_percent::1024            1                       # Percentage of cache occupancy per task id
system.cpu.dcache.tags.tag_accesses            128214                       # Number of tag accesses
system.cpu.dcache.tags.data_accesses           128214                       # Number of data accesses
system.cpu.dcache.tags.power_state.pwrStateResidencyTicks::UNDEFINED   1041541000                       # Cumulative time (in ticks) in various power states
system.cpu.dtb.rdAccesses                       45728                       # TLB accesses on read requests
system.cpu.dtb.wrAccesses                       16986                       # TLB accesses on write requests
system.cpu.dtb.rdMisses                           159                       # TLB misses on read requests
system.cpu.dtb.wrMisses                            30                       # TLB misses on write requests
system.cpu.dtb.walker.power_state.pwrStateResidencyTicks::UNDEFINED   1041541000                       # Cumulative time (in ticks) in various power states
system.cpu.icache.demand_hits::.cpu.inst       259822                       # number of demand (read+write) hits
system.cpu.icache.demand_hits::total           259822                       # number of demand (read+write) hits
system.cpu.icache.overall_hits::.cpu.inst       259822                       # number of overall hits
system.cpu.icache.overall_hits::total          259822                       # number of overall hits
system.cpu.icache.demand_misses::.cpu.inst         1947                       # number of demand (read+write) misses
system.cpu.icache.demand_misses::total           1947                       # number of demand (read+write) misses
system.cpu.icache.overall_misses::.cpu.inst         1947                       # number of overall misses
system.cpu.icache.overall_misses::total          1947                       # number of overall misses
system.cpu.icache.demand_miss_latency::.cpu.inst    129970000                       # number of demand (read+write) miss cycles
system.cpu.icache.demand_miss_latency::total    129970000                       # number of demand (read+write) miss cycles
system.cpu.icache.overall_miss_latency::.cpu.inst    129970000                       # number of overall miss cycles
system.cpu.icache.overall_miss_latency::total    129970000                       # number of overall miss cycles
system.cpu.icache.demand_accesses::.cpu.inst       261769                       # number of demand (read+write) accesses
system.cpu.icache.demand_accesses::total       261769                       # number of demand (read+write) accesses
system.cpu.icache.overall_accesses::.cpu.inst       261769                       # number of overall (read+write) accesses
system.cpu.icache.overall_accesses::total       261769                       # number of overall (read+write) accesses
system.cpu.icache.demand_miss_rate::.cpu.inst     0.007438                       # miss rate for demand accesses
system.cpu.icache.demand_miss_rate::total     0.007438                       # miss rate for demand accesses
system.cpu.icache.overall_miss_rate::.cpu.inst     0.007438                       # miss rate for overall accesses
system.cpu.icache.overall_miss_rate::total     0.007438                       # miss rate for overall accesses
system.cpu.icache.demand_avg_miss_latency::.cpu.inst 66753.980483                       # average overall miss latency
system.cpu.icache.demand_avg_miss_latency::total 66753.980483                       # average overall miss latency
system.cpu.icache.overall_avg_miss_latency::.cpu.inst 66753.980483                       # average overall miss latency
system.cpu.icache.overall_avg_miss_latency::total 66753.980483                       # average overall miss latency
system.cpu.icache.blocked_cycles::no_mshrs            0                       # number of cycles access was blocked
system.cpu.icache.blocked_cycles::no_targets            0                       # number of cycles access was blocked
system.cpu.icache.blocked::no_mshrs                 0                       # number of cycles access was blocked
system.cpu.icache.blocked::no_targets               0                       # number of cycles access was blocked
system.cpu.icache.avg_blocked_cycles::no_mshrs          nan                       # average number of cycles each access was blocked
system.cpu.icache.avg_blocked_cycles::no_targets          nan                       # average number of cycles each access was blocked
system.cpu.icache.demand_mshr_misses::.cpu.inst         1947                       # number of demand (read+write) MSHR misses
system.cpu.icache.demand_mshr_misses::total         1947                       # number of demand (read+write) MSHR misses
system.cpu.icache.overall_mshr_misses::.cpu.inst         1947                       # number of overall MSHR misses
system.cpu.icache.overall_mshr_misses::total         1947                       # number of overall MSHR misses
system.cpu.icache.demand_mshr_miss_latency::.cpu.inst    126076000                       # number of demand (read+write) MSHR miss cycles
system.cpu.icache.demand_mshr_miss_latency::total    126076000                       # number of demand (read+write) MSHR miss cycles
system.cpu.icache.overall_mshr_miss_latency::.cpu.inst    126076000                       # number of overall MSHR miss cycles
system.cpu.icache.overall_mshr_miss_latency::total    126076000                       # number of overall MSHR miss cycles
system.cpu.icache.demand_mshr_miss_rate::.cpu.inst     0.007438                       # mshr miss rate for demand accesses
system.cpu.icache.demand_mshr_miss_rate::total     0.007438                       # mshr miss rate for demand accesses
system.cpu.icache.overall_mshr_miss_rate::.cpu.inst     0.007438                       # mshr miss rate for overall accesses
system.cpu.icache.overall_mshr_miss_rate::total     0.007438                       # mshr miss rate for overall accesses
system.cpu.icache.demand_avg_mshr_miss_latency::.cpu.inst 64753.980483                       # average overall mshr miss latency
system.cpu.icache.demand_avg_mshr_miss_latency::total 64753.980483                       # average overall mshr miss latency
system.cpu.icache.overall_avg_mshr_miss_latency::.cpu.inst 64753.980483                       # average overall mshr miss latency
system.cpu.icache.overall_avg_mshr_miss_latency::total 64753.980483                       # average overall mshr miss latency
system.cpu.icache.replacements                   1691                       # number of replacements
system.cpu.icache.ReadReq_hits::.cpu.inst       259822                       # number of ReadReq hits
system.cpu.icache.ReadReq_hits::total          259822                       # number of ReadReq hits
system.cpu.icache.ReadReq_misses::.cpu.inst         1947                       # number of ReadReq misses
system.cpu.icache.ReadReq_misses::total          1947                       # number of ReadReq misses
system.cpu.icache.ReadReq_miss_latency::.cpu.inst    129970000                       # number of ReadReq miss cycles
system.cpu.icache.ReadReq_miss_latency::total    129970000                       # number of ReadReq miss cycles
system.cpu.icache.ReadReq_accesses::.cpu.inst       261769                       # number of ReadReq accesses(hits+misses)
system.cpu.icache.ReadReq_accesses::total       261769                       # number of ReadReq accesses(hits+misses)
system.cpu.icache.ReadReq_miss_rate::.cpu.inst     0.007438                       # miss rate for ReadReq accesses
system.cpu.icache.ReadReq_miss_rate::total     0.007438                       # miss rate for ReadReq accesses
system.cpu.icache.ReadReq_avg_miss_latency::.cpu.inst 66753.980483                       # average ReadReq miss latency
system.cpu.icache.ReadReq_avg_miss_latency::total 66753.980483                       # average ReadReq miss latency
system.cpu.icache.ReadReq_mshr_misses::.cpu.inst         1947                       # number of ReadReq MSHR misses
system.cpu.icache.ReadReq_mshr_misses::total         1947                       # number of ReadReq MSHR misses
system.cpu.icache.ReadReq_mshr_miss_latency::.cpu.inst    126076000                       # number of ReadReq MSHR miss cycles
system.cpu.icache.ReadReq_mshr_miss_latency::total    126076000                       # number of ReadReq MSHR miss cycles
system.cpu.icache.ReadReq_mshr_miss_rate::.cpu.inst     0.007438                       # mshr miss rate for ReadReq accesses
system.cpu.icache.ReadReq_mshr_miss_rate::total     0.007438                       # mshr miss rate for ReadReq accesses
system.cpu.icache.ReadReq_avg_mshr_miss_latency::.cpu.inst 64753.980483                       # average ReadReq mshr miss latency
system.cpu.icache.ReadReq_avg_mshr_miss_latency::total 64753.980483                       # average ReadReq mshr miss latency
system.cpu.icache.power_state.pwrStateResidencyTicks::UNDEFINED   1041541000                       # Cumulative time (in ticks) in various power states
system.cpu.icache.tags.tagsinuse           243.658154                       # Cycle average of tags in use
system.cpu.icache.tags.total_refs              261769                       # Total number of references to valid blocks.
system.cpu.icache.tags.sampled_refs              1947                       # Sample count of references to valid blocks.
system.cpu.icache.tags.avg_refs            134.447355                       # Average number of references to valid blocks.
system.cpu.icache.tags.warmup_cycle            107000                       # Cycle when the warmup percentage was hit.
system.cpu.icache.tags.occ_blocks::.cpu.inst   243.658154                       # Average occupied blocks per requestor
system.cpu.icache.tags.occ_percent::.cpu.inst     0.951790                       # Average percentage of cache occupancy
system.cpu.icache.tags.occ_percent::total     0.951790                       # Average percentage of cache occupancy
system.cpu.icache.tags.occ_task_id_blocks::1024          256                       # Occupied blocks per task id
system.cpu.icache.tags.age_task_id_blocks_1024::0           70                       # Occupied blocks per task id
system.cpu.icache.tags.age_task_id_blocks_1024::1           29                       # Occupied blocks per task id
system.cpu.icache.tags.age_task_id_blocks_1024::2          156                       # Occupied blocks per task id
system.cpu.icache.tags.age_task_id_blocks_1024::3            1                       # Occupied blocks per task id
system.cpu.icache.tags.occ_task_id_percent::1024            1                       # Percentage of cache occupancy per task id
system.cpu.icache.tags.tag_accesses            525485                       # Number of tag accesses
system.cpu.icache.tags.data_accesses           525485                       # Number of data accesses
system.cpu.icache.tags.power_state.pwrStateResidencyTicks::UNDEFINED   1041541000                       # Cumulative time (in ticks) in various power states
system.cpu.interrupts.clk_domain.clock          16000                       # Clock period in ticks
system.cpu.itb.rdAccesses                           0                       # TLB accesses on read requests
system.cpu.itb.wrAccesses                      261809                       # TLB accesses on write requests
system.cpu.itb.rdMisses                             0                       # TLB misses on read requests
system.cpu.itb.wrMisses                           153                       # TLB misses on write requests
system.cpu.itb.walker.power_state.pwrStateResidencyTicks::UNDEFINED   1041541000                       # Cumulative time (in ticks) in various power states
system.cpu.power_state.pwrStateResidencyTicks::ON   1041541000                       # Cumulative time (in ticks) in various power states
system.cpu.thread_0.numInsts                        0                       # Number of Instructions committed
system.cpu.thread_0.numOps                          0                       # Number of Ops committed
system.cpu.thread_0.numMemRefs                      0                       # Number of Memory References
system.l2bus.trans_dist::ReadResp                4223                       # Transaction distribution
system.l2bus.trans_dist::WritebackDirty           579                       # Transaction distribution
system.l2bus.trans_dist::CleanEvict              3289                       # Transaction distribution
system.l2bus.trans_dist::ReadExReq                626                       # Transaction distribution
system.l2bus.trans_dist::ReadExResp               626                       # Transaction distribution
system.l2bus.trans_dist::ReadSharedReq           4223                       # Transaction distribution
system.l2bus.pkt_count_system.cpu.icache.mem_side_port::system.l2cache.cpu_side_port         5585                       # Packet count per connected requestor and responder (bytes)
system.l2bus.pkt_count_system.cpu.dcache.mem_side_port::system.l2cache.cpu_side_port         7682                       # Packet count per connected requestor and responder (bytes)
system.l2bus.pkt_count::total                   13267                       # Packet count per connected requestor and responder (bytes)
system.l2bus.pkt_size_system.cpu.icache.mem_side_port::system.l2cache.cpu_side_port       124608                       # Cumulative packet size per connected requestor and responder (bytes)
system.l2bus.pkt_size_system.cpu.dcache.mem_side_port::system.l2cache.cpu_side_port       222208                       # Cumulative packet size per connected requestor and responder (bytes)
system.l2bus.pkt_size::total                   346816                       # Cumulative packet size per connected requestor and responder (bytes)
system.l2bus.snoops                               299                       # Total snoops (count)
system.l2bus.snoopTraffic                         576                       # Total snoop traffic (bytes)
system.l2bus.snoop_fanout::samples               5148                       # Request fanout histogram
system.l2bus.snoop_fanout::mean              0.035742                       # Request fanout histogram
system.l2bus.snoop_fanout::stdev             0.185664                       # Request fanout histogram
system.l2bus.snoop_fanout::underflows               0      0.00%      0.00% # Request fanout histogram
system.l2bus.snoop_fanout::0                     4964     96.43%     96.43% # Request fanout histogram
system.l2bus.snoop_fanout::1                      184      3.57%    100.00% # Request fanout histogram
system.l2bus.snoop_fanout::2                        0      0.00%    100.00% # Request fanout histogram
system.l2bus.snoop_fanout::overflows                0      0.00%    100.00% # Request fanout histogram
system.l2bus.snoop_fanout::min_value                0                       # Request fanout histogram
system.l2bus.snoop_fanout::max_value                1                       # Request fanout histogram
system.l2bus.snoop_fanout::total                 5148                       # Request fanout histogram
system.l2bus.power_state.pwrStateResidencyTicks::UNDEFINED   1041541000                       # Cumulative time (in ticks) in various power states
system.l2bus.reqLayer0.occupancy              9558000                       # Layer occupancy (ticks)
system.l2bus.reqLayer0.utilization                0.9                       # Layer utilization (%)
system.l2bus.respLayer0.occupancy             5841000                       # Layer occupancy (ticks)
system.l2bus.respLayer0.utilization               0.6                       # Layer utilization (%)
system.l2bus.respLayer1.occupancy             8706000                       # Layer occupancy (ticks)
system.l2bus.respLayer1.utilization               0.8                       # Layer utilization (%)
system.l2cache.demand_hits::.cpu.inst             913                       # number of demand (read+write) hits
system.l2cache.demand_hits::.cpu.data             334                       # number of demand (read+write) hits
system.l2cache.demand_hits::total                1247                       # number of demand (read+write) hits
system.l2cache.overall_hits::.cpu.inst            913                       # number of overall hits
system.l2cache.overall_hits::.cpu.data            334                       # number of overall hits
system.l2cache.overall_hits::total               1247                       # number of overall hits
system.l2cache.demand_misses::.cpu.inst          1034                       # number of demand (read+write) misses
system.l2cache.demand_misses::.cpu.data          2568                       # number of demand (read+write) misses
system.l2cache.demand_misses::total              3602                       # number of demand (read+write) misses
system.l2cache.overall_misses::.cpu.inst         1034                       # number of overall misses
system.l2cache.overall_misses::.cpu.data         2568                       # number of overall misses
system.l2cache.overall_misses::total             3602                       # number of overall misses
system.l2cache.demand_miss_latency::.cpu.inst    101058000                       # number of demand (read+write) miss cycles
system.l2cache.demand_miss_latency::.cpu.data    251062000                       # number of demand (read+write) miss cycles
system.l2cache.demand_miss_latency::total    352120000                       # number of demand (read+write) miss cycles
system.l2cache.overall_miss_latency::.cpu.inst    101058000                       # number of overall miss cycles
system.l2cache.overall_miss_latency::.cpu.data    251062000                       # number of overall miss cycles
system.l2cache.overall_miss_latency::total    352120000                       # number of overall miss cycles
system.l2cache.demand_accesses::.cpu.inst         1947                       # number of demand (read+write) accesses
system.l2cache.demand_accesses::.cpu.data         2902                       # number of demand (read+write) accesses
system.l2cache.demand_accesses::total            4849                       # number of demand (read+write) accesses
system.l2cache.overall_accesses::.cpu.inst         1947                       # number of overall (read+write) accesses
system.l2cache.overall_accesses::.cpu.data         2902                       # number of overall (read+write) accesses
system.l2cache.overall_accesses::total           4849                       # number of overall (read+write) accesses
system.l2cache.demand_miss_rate::.cpu.inst     0.531073                       # miss rate for demand accesses
system.l2cache.demand_miss_rate::.cpu.data     0.884907                       # miss rate for demand accesses
system.l2cache.demand_miss_rate::total       0.742834                       # miss rate for demand accesses
system.l2cache.overall_miss_rate::.cpu.inst     0.531073                       # miss rate for overall accesses
system.l2cache.overall_miss_rate::.cpu.data     0.884907                       # miss rate for overall accesses
system.l2cache.overall_miss_rate::total      0.742834                       # miss rate for overall accesses
system.l2cache.demand_avg_miss_latency::.cpu.inst 97735.009671                       # average overall miss latency
system.l2cache.demand_avg_miss_latency::.cpu.data 97765.576324                       # average overall miss latency
system.l2cache.demand_avg_miss_latency::total 97756.801777                       # average overall miss latency
system.l2cache.overall_avg_miss_latency::.cpu.inst 97735.009671                       # average overall miss latency
system.l2cache.overall_avg_miss_latency::.cpu.data 97765.576324                       # average overall miss latency
system.l2cache.overall_avg_miss_latency::total 97756.801777                       # average overall miss latency
system.l2cache.blocked_cycles::no_mshrs             0                       # number of cycles access was blocked
system.l2cache.blocked_cycles::no_targets            0                       # number of cycles access was blocked
system.l2cache.blocked::no_mshrs                    0                       # number of cycles access was blocked
system.l2cache.blocked::no_targets                  0                       # number of cycles access was blocked
system.l2cache.avg_blocked_cycles::no_mshrs          nan                       # average number of cycles each access was blocked
system.l2cache.avg_blocked_cycles::no_targets          nan                       # average number of cycles each access was blocked
system.l2cache.writebacks::.writebacks              9                       # number of writebacks
system.l2cache.writebacks::total                    9                       # number of writebacks
system.l2cache.demand_mshr_misses::.cpu.inst         1034                       # number of demand (read+write) MSHR misses
system.l2cache.demand_mshr_misses::.cpu.data         2568                       # number of demand (read+write) MSHR misses
system.l2cache.demand_mshr_misses::total         3602                       # number of demand (read+write) MSHR misses
system.l2cache.overall_mshr_misses::.cpu.inst         1034                       # number of overall MSHR misses
system.l2cache.overall_mshr_misses::.cpu.data         2568                       # number of overall MSHR misses
system.l2cache.overall_mshr_misses::total         3602                       # number of overall MSHR misses
system.l2cache.demand_mshr_miss_latency::.cpu.inst     80378000                       # number of demand (read+write) MSHR miss cycles
system.l2cache.demand_mshr_miss_latency::.cpu.data    199702000                       # number of demand (read+write) MSHR miss cycles
system.l2cache.demand_mshr_miss_latency::total    280080000                       # number of demand (read+write) MSHR miss cycles
system.l2cache.overall_mshr_miss_latency::.cpu.inst     80378000                       # number of overall MSHR miss cycles
system.l2cache.overall_mshr_miss_latency::.cpu.data    199702000                       # number of overall MSHR miss cycles
system.l2cache.overall_mshr_miss_latency::total    280080000                       # number of overall MSHR miss cycles
system.l2cache.demand_mshr_miss_rate::.cpu.inst     0.531073                       # mshr miss rate for demand accesses
system.l2cache.demand_mshr_miss_rate::.cpu.data     0.884907                       # mshr miss rate for demand accesses
system.l2cache.demand_mshr_miss_rate::total     0.742834                       # mshr miss rate for demand accesses
system.l2cache.overall_mshr_miss_rate::.cpu.inst     0.531073                       # mshr miss rate for overall accesses
system.l2cache.overall_mshr_miss_rate::.cpu.data     0.884907                       # mshr miss rate for overall accesses
system.l2cache.overall_mshr_miss_rate::total     0.742834                       # mshr miss rate for overall accesses
system.l2cache.demand_avg_mshr_miss_latency::.cpu.inst 77735.009671                       # average overall mshr miss latency
system.l2cache.demand_avg_mshr_miss_latency::.cpu.data 77765.576324                       # average overall mshr miss latency
system.l2cache.demand_avg_mshr_miss_latency::total 77756.801777                       # average overall mshr miss latency
system.l2cache.overall_avg_mshr_miss_latency::.cpu.inst 77735.009671                       # average overall mshr miss latency
system.l2cache.overall_avg_mshr_miss_latency::.cpu.data 77765.576324                       # average overall mshr miss latency
system.l2cache.overall_avg_mshr_miss_latency::total 77756.801777                       # average overall mshr miss latency
system.l2cache.replacements                       132                       # number of replacements
system.l2cache.WritebackDirty_hits::.writebacks          570                       # number of WritebackDirty hits
system.l2cache.WritebackDirty_hits::total          570                       # number of WritebackDirty hits
system.l2cache.WritebackDirty_accesses::.writebacks          570                       # number of WritebackDirty accesses(hits+misses)
system.l2cache.WritebackDirty_accesses::total          570                       # number of WritebackDirty accesses(hits+misses)
system.l2cache.CleanEvict_mshr_misses::.writebacks          113                       # number of CleanEvict MSHR misses
system.l2cache.CleanEvict_mshr_misses::total          113                       # number of CleanEvict MSHR misses
system.l2cache.CleanEvict_mshr_miss_rate::.writebacks          inf                       # mshr miss rate for CleanEvict accesses
system.l2cache.CleanEvict_mshr_miss_rate::total          inf                       # mshr miss rate for CleanEvict accesses
system.l2cache.ReadExReq_hits::.cpu.data           69                       # number of ReadExReq hits
system.l2cache.ReadExReq_hits::total               69                       # number of ReadExReq hits
system.l2cache.ReadExReq_misses::.cpu.data          557                       # number of ReadExReq misses
system.l2cache.ReadExReq_misses::total            557                       # number of ReadExReq misses
system.l2cache.ReadExReq_miss_latency::.cpu.data     53141000                       # number of ReadExReq miss cycles
system.l2cache.ReadExReq_miss_latency::total     53141000                       # number of ReadExReq miss cycles
system.l2cache.ReadExReq_accesses::.cpu.data          626                       # number of ReadExReq accesses(hits+misses)
system.l2cache.ReadExReq_accesses::total          626                       # number of ReadExReq accesses(hits+misses)
system.l2cache.ReadExReq_miss_rate::.cpu.data     0.889776                       # miss rate for ReadExReq accesses
system.l2cache.ReadExReq_miss_rate::total     0.889776                       # miss rate for ReadExReq accesses
system.l2cache.ReadExReq_avg_miss_latency::.cpu.data 95405.745063                       # average ReadExReq miss latency
system.l2cache.ReadExReq_avg_miss_latency::total 95405.745063                       # average ReadExReq miss latency
system.l2cache.ReadExReq_mshr_misses::.cpu.data          557                       # number of ReadExReq MSHR misses
system.l2cache.ReadExReq_mshr_misses::total          557                       # number of ReadExReq MSHR misses
system.l2cache.ReadExReq_mshr_miss_latency::.cpu.data     42001000                       # number of ReadExReq MSHR miss cycles
system.l2cache.ReadExReq_mshr_miss_latency::total     42001000                       # number of ReadExReq MSHR miss cycles
system.l2cache.ReadExReq_mshr_miss_rate::.cpu.data     0.889776                       # mshr miss rate for ReadExReq accesses
system.l2cache.ReadExReq_mshr_miss_rate::total     0.889776                       # mshr miss rate for ReadExReq accesses
system.l2cache.ReadExReq_avg_mshr_miss_latency::.cpu.data 75405.745063                       # average ReadExReq mshr miss latency
system.l2cache.ReadExReq_avg_mshr_miss_latency::total 75405.745063                       # average ReadExReq mshr miss latency
system.l2cache.ReadSharedReq_hits::.cpu.inst          913                       # number of ReadSharedReq hits
system.l2cache.ReadSharedReq_hits::.cpu.data          265                       # number of ReadSharedReq hits
system.l2cache.ReadSharedReq_hits::total         1178                       # number of ReadSharedReq hits
system.l2cache.ReadSharedReq_misses::.cpu.inst         1034                       # number of ReadSharedReq misses
system.l2cache.ReadSharedReq_misses::.cpu.data         2011                       # number of ReadSharedReq misses
system.l2cache.ReadSharedReq_misses::total         3045                       # number of ReadSharedReq misses
system.l2cache.ReadSharedReq_miss_latency::.cpu.inst    101058000                       # number of ReadSharedReq miss cycles
system.l2cache.ReadSharedReq_miss_latency::.cpu.data    197921000                       # number of ReadSharedReq miss cycles
system.l2cache.ReadSharedReq_miss_latency::total    298979000                       # number of ReadSharedReq miss cycles
system.l2cache.ReadSharedReq_accesses::.cpu.inst         1947                       # number of ReadSharedReq accesses(hits+misses)
system.l2cache.ReadSharedReq_accesses::.cpu.data         2276                       # number of ReadSharedReq accesses(hits+misses)
system.l2cache.ReadSharedReq_accesses::total         4223                       # number of ReadSharedReq accesses(hits+misses)
system.l2cache.ReadSharedReq_miss_rate::.cpu.inst     0.531073                       # miss rate for ReadSharedReq accesses
system.l2cache.ReadSharedReq_miss_rate::.cpu.data     0.883568                       # miss rate for ReadSharedReq accesses
system.l2cache.ReadSharedReq_miss_rate::total     0.721051                       # miss rate for ReadSharedReq accesses
system.l2cache.ReadSharedReq_avg_miss_latency::.cpu.inst 97735.009671                       # average ReadSharedReq miss latency
system.l2cache.ReadSharedReq_avg_miss_latency::.cpu.data 98419.194431                       # average ReadSharedReq miss latency
system.l2cache.ReadSharedReq_avg_miss_latency::total 98186.863711                       # average ReadSharedReq miss latency
system.l2cache.ReadSharedReq_mshr_misses::.cpu.inst         1034                       # number of ReadSharedReq MSHR misses
system.l2cache.ReadSharedReq_mshr_misses::.cpu.data         2011                       # number of ReadSharedReq MSHR misses
system.l2cache.ReadSharedReq_mshr_misses::total         3045                       # number of ReadSharedReq MSHR misses
system.l2cache.ReadSharedReq_mshr_miss_latency::.cpu.inst     80378000                       # number of ReadSharedReq MSHR miss cycles
system.l2cache.ReadSharedReq_mshr_miss_latency::.cpu.data    157701000                       # number of ReadSharedReq MSHR miss cycles
system.l2cache.ReadSharedReq_mshr_miss_latency::total    238079000                       # number of ReadSharedReq MSHR miss cycles
system.l2cache.ReadSharedReq_mshr_miss_rate::.cpu.inst     0.531073                       # mshr miss rate for ReadSharedReq accesses
system.l2cache.ReadSharedReq_mshr_miss_rate::.cpu.data     0.883568                       # mshr miss rate for ReadSharedReq accesses
system.l2cache.ReadSharedReq_mshr_miss_rate::total     0.721051                       # mshr miss rate for ReadSharedReq accesses
system.l2cache.ReadSharedReq_avg_mshr_miss_latency::.cpu.inst 77735.009671                       # average ReadSharedReq mshr miss latency
system.l2cache.ReadSharedReq_avg_mshr_miss_latency::.cpu.data 78419.194431                       # average ReadSharedReq mshr miss latency
system.l2cache.ReadSharedReq_avg_mshr_miss_latency::total 78186.863711                       # average ReadSharedReq mshr miss latency
system.l2cache.power_state.pwrStateResidencyTicks::UNDEFINED   1041541000                       # Cumulative time (in ticks) in various power states
system.l2cache.replacement_policy.totalBypasses          167                       # Total number of cache bypasses
system.l2cache.replacement_policy.effectiveBypasses            0                       # Bypasses that correctly skipped non-reused blocks
system.l2cache.replacement_policy.ineffectiveBypasses           25                       # Bypasses that incorrectly skipped requested blocks
system.l2cache.replacement_policy.virtualEffectiveBypasses            2                       # Virtual bypasses correctly predicting non-reused blocks
system.l2cache.replacement_policy.virtualIneffectiveBypasses          112                       # Virtual bypasses incorrectly predicting requested blocks
system.l2cache.tags.tagsinuse             2086.226923                       # Cycle average of tags in use
system.l2cache.tags.total_refs                   8138                       # Total number of references to valid blocks.
system.l2cache.tags.sampled_refs                 3487                       # Sample count of references to valid blocks.
system.l2cache.tags.avg_refs                 2.333811                       # Average number of references to valid blocks.
system.l2cache.tags.warmup_cycle                86000                       # Cycle when the warmup percentage was hit.
system.l2cache.tags.occ_blocks::.writebacks    32.407822                       # Average occupied blocks per requestor
system.l2cache.tags.occ_blocks::.cpu.inst   608.851460                       # Average occupied blocks per requestor
system.l2cache.tags.occ_blocks::.cpu.data  1444.967641                       # Average occupied blocks per requestor
system.l2cache.tags.occ_percent::.writebacks     0.007912                       # Average percentage of cache occupancy
system.l2cache.tags.occ_percent::.cpu.inst     0.148645                       # Average percentage of cache occupancy
system.l2cache.tags.occ_percent::.cpu.data     0.352775                       # Average percentage of cache occupancy
system.l2cache.tags.occ_percent::total       0.509333                       # Average percentage of cache occupancy
system.l2cache.tags.occ_task_id_blocks::1024         3355                       # Occupied blocks per task id
system.l2cache.tags.age_task_id_blocks_1024::0           58                       # Occupied blocks per task id
system.l2cache.tags.age_task_id_blocks_1024::1           15                       # Occupied blocks per task id
system.l2cache.tags.age_task_id_blocks_1024::2         3113                       # Occupied blocks per task id
system.l2cache.tags.age_task_id_blocks_1024::3          169                       # Occupied blocks per task id
system.l2cache.tags.occ_task_id_percent::1024     0.819092                       # Percentage of cache occupancy per task id
system.l2cache.tags.tag_accesses                70831                       # Number of tag accesses
system.l2cache.tags.data_accesses               70831                       # Number of data accesses
system.l2cache.tags.power_state.pwrStateResidencyTicks::UNDEFINED   1041541000                       # Cumulative time (in ticks) in various power states
system.mem_ctrl.avgPriority_.writebacks::samples         9.00                       # Average QoS priority value for accepted requests
system.mem_ctrl.avgPriority_.cpu.inst::samples      1034.00                       # Average QoS priority value for accepted requests
system.mem_ctrl.avgPriority_.cpu.data::samples      2568.00                       # Average QoS priority value for accepted requests
system.mem_ctrl.priorityMinLatency       0.000000018750                       # per QoS priority minimum request to response latency (s)
system.mem_ctrl.priorityMaxLatency       0.000000579500                       # per QoS priority maximum request to response latency (s)
system.mem_ctrl.numReadWriteTurnArounds             0                       # Number of turnarounds from READ to WRITE
system.mem_ctrl.numWriteReadTurnArounds             0                       # Number of turnarounds from WRITE to READ
system.mem_ctrl.numStayReadState                 7479                       # Number of times bus staying in READ state
system.mem_ctrl.numStayWriteState                   0                       # Number of times bus staying in WRITE state
system.mem_ctrl.readReqs                         3602                       # Number of read requests accepted
system.mem_ctrl.writeReqs                           9                       # Number of write requests accepted
system.mem_ctrl.readBursts                       3602                       # Number of controller read bursts, including those serviced by the write queue
system.mem_ctrl.writeBursts                         9                       # Number of controller write bursts, including those merged in the write queue
system.mem_ctrl.servicedByWrQ                       0                       # Number of controller read bursts serviced by the write queue
system.mem_ctrl.mergedWrBursts                      0                       # Number of controller write bursts merged with an existing one
system.mem_ctrl.neitherReadNorWriteReqs             0                       # Number of requests that are neither read nor write
system.mem_ctrl.avgRdQLen                        1.00                       # Average read queue length when enqueuing
system.mem_ctrl.avgWrQLen                        1.01                       # Average write queue length when enqueuing
system.mem_ctrl.numRdRetry                          0                       # Number of times read queue was full causing retry
system.mem_ctrl.numWrRetry                          0                       # Number of times write queue was full causing retry
system.mem_ctrl.readPktSize::0                      0                       # Read request sizes (log2)
system.mem_ctrl.readPktSize::1                      0                       # Read request sizes (log2)
system.mem_ctrl.readPktSize::2                      0                       # Read request sizes (log2)
system.mem_ctrl.readPktSize::3                      0                       # Read request sizes (log2)
system.mem_ctrl.readPktSize::4                      0                       # Read request sizes (log2)
system.mem_ctrl.readPktSize::5                      0                       # Read request sizes (log2)
system.mem_ctrl.readPktSize::6                   3602                       # Read request sizes (log2)
system.mem_ctrl.writePktSize::0                     0                       # Write request sizes (log2)
system.mem_ctrl.writePktSize::1                     0                       # Write request sizes (log2)
system.mem_ctrl.writePktSize::2                     0                       # Write request sizes (log2)
system.mem_ctrl.writePktSize::3                     0                       # Write request sizes (log2)
system.mem_ctrl.writePktSize::4                     0                       # Write request sizes (log2)
system.mem_ctrl.writePktSize::5                     0                       # Write request sizes (log2)
system.mem_ctrl.writePktSize::6                     9                       # Write request sizes (log2)
system.mem_ctrl.rdQLenPdf::0                     3601                       # What read queue length does an incoming req see
system.mem_ctrl.rdQLenPdf::1                        1                       # What read queue length does an incoming req see
system.mem_ctrl.rdQLenPdf::2                        0                       # What read queue length does an incoming req see
system.mem_ctrl.rdQLenPdf::3                        0                       # What read queue length does an incoming req see
system.mem_ctrl.rdQLenPdf::4                        0                       # What read queue length does an incoming req see
system.mem_ctrl.rdQLenPdf::5                        0                       # What read queue length does an incoming req see
system.mem_ctrl.rdQLenPdf::6                        0                       # What read queue length does an incoming req see
system.mem_ctrl.rdQLenPdf::7                        0                       # What read queue length does an incoming req see
system.mem_ctrl.rdQLenPdf::8                        0                       # What read queue length does an incoming req see
system.mem_ctrl.rdQLenPdf::9                        0                       # What read queue length does an incoming req see
system.mem_ctrl.rdQLenPdf::10                       0                       # What read queue length does an incoming req see
system.mem_ctrl.rdQLenPdf::11                       0                       # What read queue length does an incoming req see
system.mem_ctrl.rdQLenPdf::12                       0                       # What read queue length does an incoming req see
system.mem_ctrl.rdQLenPdf::13                       0                       # What read queue length does an incoming req see
system.mem_ctrl.rdQLenPdf::14                       0                       # What read queue length does an incoming req see
system.mem_ctrl.rdQLenPdf::15                       0                       # What read queue length does an incoming req see
system.mem_ctrl.rdQLenPdf::16                       0                       # What read queue length does an incoming req see
system.mem_ctrl.rdQLenPdf::17                       0                       # What read queue length does an incoming req see
system.mem_ctrl.rdQLenPdf::18                       0                       # What read queue length does an incoming req see
system.mem_ctrl.rdQLenPdf::19                       0                       # What read queue length does an incoming req see
system.mem_ctrl.rdQLenPdf::20                       0                       # What read queue length does an incoming req see
system.mem_ctrl.rdQLenPdf::21                       0                       # What read queue length does an incoming req see
system.mem_ctrl.rdQLenPdf::22                       0                       # What read queue length does an incoming req see
system.mem_ctrl.rdQLenPdf::23                       0                       # What read queue length does an incoming req see
system.mem_ctrl.rdQLenPdf::24                       0                       # What read queue length does an incoming req see
system.mem_ctrl.rdQLenPdf::25                       0                       # What read queue length does an incoming req see
system.mem_ctrl.rdQLenPdf::26                       0                       # What read queue length does an incoming req see
system.mem_ctrl.rdQLenPdf::27                       0                       # What read queue length does an incoming req see
system.mem_ctrl.rdQLenPdf::28                       0                       # What read queue length does an incoming req see
system.mem_ctrl.rdQLenPdf::29                       0                       # What read queue length does an incoming req see
system.mem_ctrl.rdQLenPdf::30                       0                       # What read queue length does an incoming req see
system.mem_ctrl.rdQLenPdf::31                       0                       # What read queue length does an incoming req see
system.mem_ctrl.wrQLenPdf::0                        1                       # What write queue length does an incoming req see
system.mem_ctrl.wrQLenPdf::1                        1                       # What write queue length does an incoming req see
system.mem_ctrl.wrQLenPdf::2                        1                       # What write queue length does an incoming req see
system.mem_ctrl.wrQLenPdf::3                        1                       # What write queue length does an incoming req see
system.mem_ctrl.wrQLenPdf::4                        1                       # What write queue length does an incoming req see
system.mem_ctrl.wrQLenPdf::5                        1                       # What write queue length does an incoming req see
system.mem_ctrl.wrQLenPdf::6                        1                       # What write queue length does an incoming req see
system.mem_ctrl.wrQLenPdf::7                        1                       # What write queue length does an incoming req see
system.mem_ctrl.wrQLenPdf::8                        1                       # What write queue length does an incoming req see
system.mem_ctrl.wrQLenPdf::9                        0                       # What write queue length does an incoming req see
system.mem_ctrl.wrQLenPdf::10                       0                       # What write queue length does an incoming req see
system.mem_ctrl.wrQLenPdf::11                       0                       # What write queue length does an incoming req see
system.mem_ctrl.wrQLenPdf::12                       0                       # What write queue length does an incoming req see
system.mem_ctrl.wrQLenPdf::13                       0                       # What write queue length does an incoming req see
system.mem_ctrl.wrQLenPdf::14                       0                       # What write queue length does an incoming req see
system.mem_ctrl.wrQLenPdf::15                       0                       # What write queue length does an incoming req see
system.mem_ctrl.wrQLenPdf::16                       0                       # What write queue length does an incoming req see
system.mem_ctrl.wrQLenPdf::17                       0                       # What write queue length does an incoming req see
system.mem_ctrl.wrQLenPdf::18                       0                       # What write queue length does an incoming req see
system.mem_ctrl.wrQLenPdf::19                       0                       # What write queue length does an incoming req see
system.mem_ctrl.wrQLenPdf::20                       0                       # What write queue length does an incoming req see
system.mem_ctrl.wrQLenPdf::21                       0                       # What write queue length does an incoming req see
system.mem_ctrl.wrQLenPdf::22                       0                       # What write queue length does an incoming req see
system.mem_ctrl.wrQLenPdf::23                       0                       # What write queue length does an incoming req see
system.mem_ctrl.wrQLenPdf::24                       0                       # What write queue length does an incoming req see
system.mem_ctrl.wrQLenPdf::25                       0                       # What write queue length does an incoming req see
system.mem_ctrl.wrQLenPdf::26                       0                       # What write queue length does an incoming req see
system.mem_ctrl.wrQLenPdf::27                       0                       # What write queue length does an incoming req see
system.mem_ctrl.wrQLenPdf::28                       0                       # What write queue length does an incoming req see
system.mem_ctrl.wrQLenPdf::29                       0                       # What write queue length does an incoming req see
system.mem_ctrl.wrQLenPdf::30                       0                       # What write queue length does an incoming req see
system.mem_ctrl.wrQLenPdf::31                       0                       # What write queue length does an incoming req see
system.mem_ctrl.wrQLenPdf::32                       0                       # What write queue length does an incoming req see
system.mem_ctrl.wrQLenPdf::33                       0                       # What write queue length does an incoming req see
system.mem_ctrl.wrQLenPdf::34                       0                       # What write queue length does an incoming req see
system.mem_ctrl.wrQLenPdf::35                       0                       # What write queue length does an incoming req see
system.mem_ctrl.wrQLenPdf::36                       0                       # What write queue length does an incoming req see
system.mem_ctrl.wrQLenPdf::37                       0                       # What write queue length does an incoming req see
system.mem_ctrl.wrQLenPdf::38                       0                       # What write queue length does an incoming req see
system.mem_ctrl.wrQLenPdf::39                       0                       # What write queue length does an incoming req see
system.mem_ctrl.wrQLenPdf::40                       0                       # What write queue length does an incoming req see
system.mem_ctrl.wrQLenPdf::41                       0                       # What write queue length does an incoming req see
system.mem_ctrl.wrQLenPdf::42                       0                       # What write queue length does an incoming req see
system.mem_ctrl.wrQLenPdf::43                       0                       # What write queue length does an incoming req see
system.mem_ctrl.wrQLenPdf::44                       0                       # What write queue length does an incoming req see
system.mem_ctrl.wrQLenPdf::45                       0                       # What write queue length does an incoming req see
system.mem_ctrl.wrQLenPdf::46                       0                       # What write queue length does an incoming req see
system.mem_ctrl.wrQLenPdf::47                       0                       # What write queue length does an incoming req see
system.mem_ctrl.wrQLenPdf::48                       0                       # What write queue length does an incoming req see
system.mem_ctrl.wrQLenPdf::49                       0                       # What write queue length does an incoming req see
system.mem_ctrl.wrQLenPdf::50                       0                       # What write queue length does an incoming req see
system.mem_ctrl.wrQLenPdf::51                       0                       # What write queue length does an incoming req see
system.mem_ctrl.wrQLenPdf::52                       0                       # What write queue length does an incoming req see
system.mem_ctrl.wrQLenPdf::53                       0                       # What write queue length does an incoming req see
system.mem_ctrl.wrQLenPdf::54                       0                       # What write queue length does an incoming req see
system.mem_ctrl.wrQLenPdf::55                       0                       # What write queue length does an incoming req see
system.mem_ctrl.wrQLenPdf::56                       0                       # What write queue length does an incoming req see
system.mem_ctrl.wrQLenPdf::57                       0                       # What write queue length does an incoming req see
system.mem_ctrl.wrQLenPdf::58                       0                       # What write queue length does an incoming req see
system.mem_ctrl.wrQLenPdf::59                       0                       # What write queue length does an incoming req see
system.mem_ctrl.wrQLenPdf::60                       0                       # What write queue length does an incoming req see
system.mem_ctrl.wrQLenPdf::61                       0                       # What write queue length does an incoming req see
system.mem_ctrl.wrQLenPdf::62                       0                       # What write queue length does an incoming req see
system.mem_ctrl.wrQLenPdf::63                       0                       # What write queue length does an incoming req see
system.mem_ctrl.bytesReadWrQ                        0                       # Total number of bytes read from write queue
system.mem_ctrl.bytesReadSys                   230528                       # Total read bytes from the system interface side
system.mem_ctrl.bytesWrittenSys                   576                       # Total written bytes from the system interface side
system.mem_ctrl.avgRdBWSys                     221.33                       # Average system read bandwidth in MiByte/s
system.mem_ctrl.avgWrBWSys                       0.55                       # Average system write bandwidth in MiByte/s
system.mem_ctrl.totGap                     1041442000                       # Total gap between requests
system.mem_ctrl.avgGap                      288408.20                       # Average gap between requests
system.mem_ctrl.requestorReadBytes::.cpu.inst        66176                       # Per-requestor bytes read from memory
system.mem_ctrl.requestorReadBytes::.cpu.data       164352                       # Per-requestor bytes read from memory
system.mem_ctrl.requestorReadRate::.cpu.inst 63536625.058447048068                       # Per-requestor bytes read from memory rate (Bytes/sec)
system.mem_ctrl.requestorReadRate::.cpu.data 157796956.624847233295                       # Per-requestor bytes read from memory rate (Bytes/sec)
system.mem_ctrl.requestorReadAccesses::.cpu.inst         1034                       # Per-requestor read serviced memory accesses
system.mem_ctrl.requestorReadAccesses::.cpu.data         2568                       # Per-requestor read serviced memory accesses
system.mem_ctrl.requestorWriteAccesses::.writebacks            9                       # Per-requestor write serviced memory accesses
system.mem_ctrl.requestorReadTotalLat::.cpu.inst     27314250                       # Per-requestor read total memory access latency
system.mem_ctrl.requestorReadTotalLat::.cpu.data     67944750                       # Per-requestor read total memory access latency
system.mem_ctrl.requestorReadAvgLat::.cpu.inst     26416.10                       # Per-requestor read average memory access latency
system.mem_ctrl.requestorReadAvgLat::.cpu.data     26458.24                       # Per-requestor read average memory access latency
system.mem_ctrl.requestorWriteAvgLat::.writebacks         0.00                       # Per-requestor write average memory access latency
system.mem_ctrl.dram.bytes_read::.cpu.inst        66176                       # Number of bytes read from this memory
system.mem_ctrl.dram.bytes_read::.cpu.data       164352                       # Number of bytes read from this memory
system.mem_ctrl.dram.bytes_read::total         230528                       # Number of bytes read from this memory
system.mem_ctrl.dram.bytes_inst_read::.cpu.inst        66176                       # Number of instructions bytes read from this memory
system.mem_ctrl.dram.bytes_inst_read::total        66176                       # Number of instructions bytes read from this memory
system.mem_ctrl.dram.bytes_written::.writebacks          576                       # Number of bytes written to this memory
system.mem_ctrl.dram.bytes_written::total          576                       # Number of bytes written to this memory
system.mem_ctrl.dram.num_reads::.cpu.inst         1034                       # Number of read requests responded to by this memory
system.mem_ctrl.dram.num_reads::.cpu.data         2568                       # Number of read requests responded to by this memory
system.mem_ctrl.dram.num_reads::total            3602                       # Number of read requests responded to by this memory
system.mem_ctrl.dram.num_writes::.writebacks            9                       # Number of write requests responded to by this memory
system.mem_ctrl.dram.num_writes::total              9                       # Number of write requests responded to by this memory
system.mem_ctrl.dram.bw_read::.cpu.inst      63536625                       # Total read bandwidth from this memory (bytes/s)
system.mem_ctrl.dram.bw_read::.cpu.data     157796957                       # Total read bandwidth from this memory (bytes/s)
system.mem_ctrl.dram.bw_read::total         221333582                       # Total read bandwidth from this memory (bytes/s)
system.mem_ctrl.dram.bw_inst_read::.cpu.inst     63536625                       # Instruction read bandwidth from this memory (bytes/s)
system.mem_ctrl.dram.bw_inst_read::total     63536625                       # Instruction read bandwidth from this memory (bytes/s)
system.mem_ctrl.dram.bw_write::.writebacks       553027                       # Write bandwidth from this memory (bytes/s)
system.mem_ctrl.dram.bw_write::total           553027                       # Write bandwidth from this memory (bytes/s)
system.mem_ctrl.dram.bw_total::.writebacks       553027                       # Total bandwidth to/from this memory (bytes/s)
system.mem_ctrl.dram.bw_total::.cpu.inst     63536625                       # Total bandwidth to/from this memory (bytes/s)
system.mem_ctrl.dram.bw_total::.cpu.data    157796957                       # Total bandwidth to/from this memory (bytes/s)
system.mem_ctrl.dram.bw_total::total        221886608                       # Total bandwidth to/from this memory (bytes/s)
system.mem_ctrl.dram.readBursts                  3602                       # Number of DRAM read bursts
system.mem_ctrl.dram.writeBursts                    0                       # Number of DRAM write bursts
system.mem_ctrl.dram.perBankRdBursts::0           289                       # Per bank write bursts
system.mem_ctrl.dram.perBankRdBursts::1           345                       # Per bank write bursts
system.mem_ctrl.dram.perBankRdBursts::2           238                       # Per bank write bursts
system.mem_ctrl.dram.perBankRdBursts::3           290                       # Per bank write bursts
system.mem_ctrl.dram.perBankRdBursts::4           199                       # Per bank write bursts
system.mem_ctrl.dram.perBankRdBursts::5           224                       # Per bank write bursts
system.mem_ctrl.dram.perBankRdBursts::6           193                       # Per bank write bursts
system.mem_ctrl.dram.perBankRdBursts::7           185                       # Per bank write bursts
system.mem_ctrl.dram.perBankRdBursts::8           245                       # Per bank write bursts
system.mem_ctrl.dram.perBankRdBursts::9           298                       # Per bank write bursts
system.mem_ctrl.dram.perBankRdBursts::10          221                       # Per bank write bursts
system.mem_ctrl.dram.perBankRdBursts::11          172                       # Per bank write bursts
system.mem_ctrl.dram.perBankRdBursts::12          115                       # Per bank write bursts
system.mem_ctrl.dram.perBankRdBursts::13          150                       # Per bank write bursts
system.mem_ctrl.dram.perBankRdBursts::14          246                       # Per bank write bursts
system.mem_ctrl.dram.perBankRdBursts::15          192                       # Per bank write bursts
system.mem_ctrl.dram.perBankWrBursts::0             0                       # Per bank write bursts
system.mem_ctrl.dram.perBankWrBursts::1             0                       # Per bank write bursts
system.mem_ctrl.dram.perBankWrBursts::2             0                       # Per bank write bursts
system.mem_ctrl.dram.perBankWrBursts::3             0                       # Per bank write bursts
system.mem_ctrl.dram.perBankWrBursts::4             0                       # Per bank write bursts
system.mem_ctrl.dram.perBankWrBursts::5             0                       # Per bank write bursts
system.mem_ctrl.dram.perBankWrBursts::6             0                       # Per bank write bursts
system.mem_ctrl.dram.perBankWrBursts::7             0                       # Per bank write bursts
system.mem_ctrl.dram.perBankWrBursts::8             0                       # Per bank write bursts
system.mem_ctrl.dram.perBankWrBursts::9             0                       # Per bank write bursts
system.mem_ctrl.dram.perBankWrBursts::10            0                       # Per bank write bursts
system.mem_ctrl.dram.perBankWrBursts::11            0                       # Per bank write bursts
system.mem_ctrl.dram.perBankWrBursts::12            0                       # Per bank write bursts
system.mem_ctrl.dram.perBankWrBursts::13            0                       # Per bank write bursts
system.mem_ctrl.dram.perBankWrBursts::14            0                       # Per bank write bursts
system.mem_ctrl.dram.perBankWrBursts::15            0                       # Per bank write bursts
system.mem_ctrl.dram.totQLat                 27721500                       # Total ticks spent queuing
system.mem_ctrl.dram.totBusLat               18010000                       # Total ticks spent in databus transfers
system.mem_ctrl.dram.totMemAccLat            95259000                       # Total ticks spent from burst creation until serviced by the DRAM
system.mem_ctrl.dram.avgQLat                  7696.14                       # Average queueing delay per DRAM burst
system.mem_ctrl.dram.avgBusLat                5000.00                       # Average bus latency per DRAM burst
system.mem_ctrl.dram.avgMemAccLat            26446.14                       # Average memory access latency per DRAM burst
system.mem_ctrl.dram.readRowHits                 2811                       # Number of row buffer hits during reads
system.mem_ctrl.dram.writeRowHits                   0                       # Number of row buffer hits during writes
system.mem_ctrl.dram.readRowHitRate             78.04                       # Row buffer hit rate for reads
system.mem_ctrl.dram.writeRowHitRate              nan                       # Row buffer hit rate for writes
system.mem_ctrl.dram.bytesPerActivate::samples          786                       # Bytes accessed per row activation
system.mem_ctrl.dram.bytesPerActivate::mean   291.664122                       # Bytes accessed per row activation
system.mem_ctrl.dram.bytesPerActivate::gmean   179.249993                       # Bytes accessed per row activation
system.mem_ctrl.dram.bytesPerActivate::stdev   308.145667                       # Bytes accessed per row activation
system.mem_ctrl.dram.bytesPerActivate::0-127          267     33.97%     33.97% # Bytes accessed per row activation
system.mem_ctrl.dram.bytesPerActivate::128-255          228     29.01%     62.98% # Bytes accessed per row activation
system.mem_ctrl.dram.bytesPerActivate::256-383           84     10.69%     73.66% # Bytes accessed per row activation
system.mem_ctrl.dram.bytesPerActivate::384-511           53      6.74%     80.41% # Bytes accessed per row activation
system.mem_ctrl.dram.bytesPerActivate::512-639           25      3.18%     83.59% # Bytes accessed per row activation
system.mem_ctrl.dram.bytesPerActivate::640-767           20      2.54%     86.13% # Bytes accessed per row activation
system.mem_ctrl.dram.bytesPerActivate::768-895           19      2.42%     88.55% # Bytes accessed per row activation
system.mem_ctrl.dram.bytesPerActivate::896-1023           19      2.42%     90.97% # Bytes accessed per row activation
system.mem_ctrl.dram.bytesPerActivate::1024-1151           71      9.03%    100.00% # Bytes accessed per row activation
system.mem_ctrl.dram.bytesPerActivate::total          786                       # Bytes accessed per row activation
system.mem_ctrl.dram.bytesRead                 230528                       # Total number of bytes read from DRAM
system.mem_ctrl.dram.bytesWritten                   0                       # Total number of bytes written to DRAM
system.mem_ctrl.dram.avgRdBW               221.333582                       # Average DRAM read bandwidth in MiBytes/s
system.mem_ctrl.dram.avgWrBW                        0                       # Average DRAM write bandwidth in MiBytes/s
system.mem_ctrl.dram.peakBW                  12800.00                       # Theoretical peak bandwidth in MiByte/s
system.mem_ctrl.dram.busUtil                     1.73                       # Data bus utilization in percentage
system.mem_ctrl.dram.busUtilRead                 1.73                       # Data bus utilization in percentage for reads
system.mem_ctrl.dram.busUtilWrite                0.00                       # Data bus utilization in percentage for writes
system.mem_ctrl.dram.pageHitRate                78.04                       # Row buffer hit rate, read and write combined
system.mem_ctrl.dram.power_state.pwrStateResidencyTicks::UNDEFINED   1041541000                       # Cumulative time (in ticks) in various power states
system.mem_ctrl.dram.rank0.actEnergy          2620380                       # Energy for activate commands per rank (pJ)
system.mem_ctrl.dram.rank0.preEnergy          1388970                       # Energy for precharge commands per rank (pJ)
system.mem_ctrl.dram.rank0.readEnergy        14015820                       # Energy for read commands per rank (pJ)
system.mem_ctrl.dram.rank0.writeEnergy              0                       # Energy for write commands per rank (pJ)
system.mem_ctrl.dram.rank0.refreshEnergy 81747120.000000                       # Energy for refresh commands per rank (pJ)
system.mem_ctrl.dram.rank0.actBackEnergy    333499020                       # Energy for active background per rank (pJ)
system.mem_ctrl.dram.rank0.preBackEnergy    119110560                       # Energy for precharge background per rank (pJ)
system.mem_ctrl.dram.rank0.actPowerDownEnergy            0                       # Energy for active power-down per rank (pJ)
system.mem_ctrl.dram.rank0.prePowerDownEnergy            0                       # Energy for precharge power-down per rank (pJ)
system.mem_ctrl.dram.rank0.selfRefreshEnergy            0                       # Energy for self refresh per rank (pJ)
system.mem_ctrl.dram.rank0.totalEnergy      552381870                       # Total energy per rank (pJ)
system.mem_ctrl.dram.rank0.averagePower    530.350577                       # Core power per rank (mW)
system.mem_ctrl.dram.rank0.totalIdleTime            0                       # Total Idle time Per DRAM Rank
system.mem_ctrl.dram.rank0.pwrStateTime::IDLE    306438500                       # Time in different power states
system.mem_ctrl.dram.rank0.pwrStateTime::REF     34580000                       # Time in different power states
system.mem_ctrl.dram.rank0.pwrStateTime::SREF            0                       # Time in different power states
system.mem_ctrl.dram.rank0.pwrStateTime::PRE_PDN            0                       # Time in different power states
system.mem_ctrl.dram.rank0.pwrStateTime::ACT    700522500                       # Time in different power states
system.mem_ctrl.dram.rank0.pwrStateTime::ACT_PDN            0                       # Time in different power states
system.mem_ctrl.dram.rank1.actEnergy          3027360                       # Energy for activate commands per rank (pJ)
system.mem_ctrl.dram.rank1.preEnergy          1593900                       # Energy for precharge commands per rank (pJ)
system.mem_ctrl.dram.rank1.readEnergy        11702460                       # Energy for read commands per rank (pJ)
system.mem_ctrl.dram.rank1.writeEnergy              0                       # Energy for write commands per rank (pJ)
system.mem_ctrl.dram.rank1.refreshEnergy 81747120.000000                       # Energy for refresh commands per rank (pJ)
system.mem_ctrl.dram.rank1.actBackEnergy    338370240                       # Energy for active background per rank (pJ)
system.mem_ctrl.dram.rank1.preBackEnergy    115008480                       # Energy for precharge background per rank (pJ)
system.mem_ctrl.dram.rank1.actPowerDownEnergy            0                       # Energy for active power-down per rank (pJ)
system.mem_ctrl.dram.rank1.prePowerDownEnergy            0                       # Energy for precharge power-down per rank (pJ)
system.mem_ctrl.dram.rank1.selfRefreshEnergy            0                       # Energy for self refresh per rank (pJ)
system.mem_ctrl.dram.rank1.totalEnergy      551449560                       # Total energy per rank (pJ)
system.mem_ctrl.dram.rank1.averagePower    529.455451                       # Core power per rank (mW)
system.mem_ctrl.dram.rank1.totalIdleTime            0                       # Total Idle time Per DRAM Rank
system.mem_ctrl.dram.rank1.pwrStateTime::IDLE    295971500                       # Time in different power states
system.mem_ctrl.dram.rank1.pwrStateTime::REF     34580000                       # Time in different power states
system.mem_ctrl.dram.rank1.pwrStateTime::SREF            0                       # Time in different power states
system.mem_ctrl.dram.rank1.pwrStateTime::PRE_PDN            0                       # Time in different power states
system.mem_ctrl.dram.rank1.pwrStateTime::ACT    710989500                       # Time in different power states
system.mem_ctrl.dram.rank1.pwrStateTime::ACT_PDN            0                       # Time in different power states
system.mem_ctrl.power_state.pwrStateResidencyTicks::UNDEFINED   1041541000                       # Cumulative time (in ticks) in various power states
system.membus.trans_dist::ReadResp               3045                       # Transaction distribution
system.membus.trans_dist::WritebackDirty            9                       # Transaction distribution
system.membus.trans_dist::CleanEvict              220                       # Transaction distribution
system.membus.trans_dist::ReadExReq               557                       # Transaction distribution
system.membus.trans_dist::ReadExResp              557                       # Transaction distribution
system.membus.trans_dist::ReadSharedReq          3045                       # Transaction distribution
system.membus.pkt_count_system.l2cache.mem_side_port::system.mem_ctrl.port         7433                       # Packet count per connected requestor and responder (bytes)
system.membus.pkt_count_system.l2cache.mem_side_port::total         7433                       # Packet count per connected requestor and responder (bytes)
system.membus.pkt_count::total                   7433                       # Packet count per connected requestor and responder (bytes)
system.membus.pkt_size_system.l2cache.mem_side_port::system.mem_ctrl.port       231104                       # Cumulative packet size per connected requestor and responder (bytes)
system.membus.pkt_size_system.l2cache.mem_side_port::total       231104                       # Cumulative packet size per connected requestor and responder (bytes)
system.membus.pkt_size::total                  231104                       # Cumulative packet size per connected requestor and responder (bytes)
system.membus.snoops                                0                       # Total snoops (count)
system.membus.snoopTraffic                          0                       # Total snoop traffic (bytes)
system.membus.snoop_fanout::samples              3602                       # Request fanout histogram
system.membus.snoop_fanout::mean                    0                       # Request fanout histogram
system.membus.snoop_fanout::stdev                   0                       # Request fanout histogram
system.membus.snoop_fanout::underflows              0      0.00%      0.00% # Request fanout histogram
system.membus.snoop_fanout::0                    3602    100.00%    100.00% # Request fanout histogram
system.membus.snoop_fanout::1                       0      0.00%    100.00% # Request fanout histogram
system.membus.snoop_fanout::overflows               0      0.00%    100.00% # Request fanout histogram
system.membus.snoop_fanout::min_value               0                       # Request fanout histogram
system.membus.snoop_fanout::max_value               0                       # Request fanout histogram
system.membus.snoop_fanout::total                3602                       # Request fanout histogram
system.membus.power_state.pwrStateResidencyTicks::UNDEFINED   1041541000                       # Cumulative time (in ticks) in various power states
system.membus.reqLayer2.occupancy             3867000                       # Layer occupancy (ticks)
system.membus.reqLayer2.utilization               0.4                       # Layer utilization (%)
system.membus.respLayer0.occupancy           19128750                       # Layer occupancy (ticks)
system.membus.respLayer0.utilization              1.8                       # Layer utilization (%)

---------- End Simulation Statistics   ----------
