
---------- Begin Simulation Statistics ----------
final_tick                               2288176798000                       # Number of ticks from beginning of simulation (restored from checkpoints and never reset)
host_inst_rate                                 444235                       # Simulator instruction rate (inst/s)
host_mem_usage                                 677256                       # Number of bytes of host memory used
host_op_rate                                   650850                       # Simulator op (including micro ops) rate (op/s)
host_seconds                                  1184.46                       # Real time elapsed on the host
host_tick_rate                             1931834876                       # Simulator tick rate (ticks/s)
sim_freq                                 1000000000000                       # Frequency of simulated ticks
sim_insts                                   526177731                       # Number of instructions simulated
sim_ops                                     770903812                       # Number of ops (including micro ops) simulated
sim_seconds                                  2.288177                       # Number of seconds simulated
sim_ticks                                2288176798000                       # Number of ticks simulated
system.cpu.Branches                           3021914                       # Number of branches fetched
system.cpu.committedInsts                   526177731                       # Number of instructions committed
system.cpu.committedOps                     770903812                       # Number of ops (including micro ops) committed
system.cpu.idle_fraction                     0.000000                       # Percentage of idle cycles
system.cpu.not_idle_fraction                 1.000000                       # Percentage of non-idle cycles
system.cpu.numCycles                       2288176798                       # number of cpu cycles simulated
system.cpu.numWorkItemsCompleted                    0                       # number of work items this cpu completed
system.cpu.numWorkItemsStarted                      0                       # number of work items this cpu started
system.cpu.num_busy_cycles               2288176797.999000                       # Number of busy cycles
system.cpu.num_cc_register_reads              8346417                       # number of times the CC registers were read
system.cpu.num_cc_register_writes            12896331                       # number of times the CC registers were written
system.cpu.num_conditional_control_insts      1622645                       # number of instructions that are conditional controls
system.cpu.num_fp_alu_accesses              724171269                       # Number of float alu accesses
system.cpu.num_fp_insts                     724171269                       # number of float instructions
system.cpu.num_fp_register_reads           1031628198                       # number of times the floating registers were read
system.cpu.num_fp_register_writes           638978691                       # number of times the floating registers were written
system.cpu.num_func_calls                     1356008                       # number of times a function call or return occured
system.cpu.num_idle_cycles                   0.001000                       # Number of idle cycles
system.cpu.num_int_alu_accesses             281643984                       # Number of integer alu accesses
system.cpu.num_int_insts                    281643984                       # number of integer instructions
system.cpu.num_int_register_reads           783870334                       # number of times the integer registers were read
system.cpu.num_int_register_writes           35235605                       # number of times the integer registers were written
system.cpu.num_load_insts                   151055063                       # Number of load instructions
system.cpu.num_mem_refs                     244655500                       # number of memory refs
system.cpu.num_store_insts                   93600437                       # Number of store instructions
system.cpu.num_vec_alu_accesses                     0                       # Number of vector alu accesses
system.cpu.num_vec_insts                            0                       # number of vector instructions
system.cpu.num_vec_register_reads                   0                       # number of times the vector registers were read
system.cpu.num_vec_register_writes                  0                       # number of times the vector registers were written
system.cpu.op_class::No_OpClass                122351      0.02%      0.02% # Class of executed instruction
system.cpu.op_class::IntAlu                 156847914     20.35%     20.36% # Class of executed instruction
system.cpu.op_class::IntMult                    38310      0.00%     20.37% # Class of executed instruction
system.cpu.op_class::IntDiv                       581      0.00%     20.37% # Class of executed instruction
system.cpu.op_class::FloatAdd               129162355     16.75%     37.12% # Class of executed instruction
system.cpu.op_class::FloatCmp                       0      0.00%     37.12% # Class of executed instruction
system.cpu.op_class::FloatCvt                       0      0.00%     37.12% # Class of executed instruction
system.cpu.op_class::FloatMult                      0      0.00%     37.12% # Class of executed instruction
system.cpu.op_class::FloatMultAcc                   0      0.00%     37.12% # Class of executed instruction
system.cpu.op_class::FloatDiv                       0      0.00%     37.12% # Class of executed instruction
system.cpu.op_class::FloatMisc                      0      0.00%     37.12% # Class of executed instruction
system.cpu.op_class::FloatSqrt                      0      0.00%     37.12% # Class of executed instruction
system.cpu.op_class::SimdAdd                      104      0.00%     37.12% # Class of executed instruction
system.cpu.op_class::SimdAddAcc                     0      0.00%     37.12% # Class of executed instruction
system.cpu.op_class::SimdAlu                 13572619      1.76%     38.88% # Class of executed instruction
system.cpu.op_class::SimdCmp                       18      0.00%     38.88% # Class of executed instruction
system.cpu.op_class::SimdCvt                     1518      0.00%     38.88% # Class of executed instruction
system.cpu.op_class::SimdMisc                   18290      0.00%     38.88% # Class of executed instruction
system.cpu.op_class::SimdMult                       0      0.00%     38.88% # Class of executed instruction
system.cpu.op_class::SimdMultAcc                    0      0.00%     38.88% # Class of executed instruction
system.cpu.op_class::SimdShift                    156      0.00%     38.88% # Class of executed instruction
system.cpu.op_class::SimdShiftAcc                   0      0.00%     38.88% # Class of executed instruction
system.cpu.op_class::SimdDiv                        0      0.00%     38.88% # Class of executed instruction
system.cpu.op_class::SimdSqrt                       0      0.00%     38.88% # Class of executed instruction
system.cpu.op_class::SimdFloatAdd           100487583     13.04%     51.92% # Class of executed instruction
system.cpu.op_class::SimdFloatAlu                   0      0.00%     51.92% # Class of executed instruction
system.cpu.op_class::SimdFloatCmp                   0      0.00%     51.92% # Class of executed instruction
system.cpu.op_class::SimdFloatCvt               11622      0.00%     51.92% # Class of executed instruction
system.cpu.op_class::SimdFloatDiv             1355195      0.18%     52.10% # Class of executed instruction
system.cpu.op_class::SimdFloatMisc                  0      0.00%     52.10% # Class of executed instruction
system.cpu.op_class::SimdFloatMult          124629795     16.17%     68.26% # Class of executed instruction
system.cpu.op_class::SimdFloatMultAcc               0      0.00%     68.26% # Class of executed instruction
system.cpu.op_class::SimdFloatSqrt                 10      0.00%     68.26% # Class of executed instruction
system.cpu.op_class::SimdReduceAdd                  0      0.00%     68.26% # Class of executed instruction
system.cpu.op_class::SimdReduceAlu                  0      0.00%     68.26% # Class of executed instruction
system.cpu.op_class::SimdReduceCmp                  0      0.00%     68.26% # Class of executed instruction
system.cpu.op_class::SimdFloatReduceAdd             0      0.00%     68.26% # Class of executed instruction
system.cpu.op_class::SimdFloatReduceCmp             0      0.00%     68.26% # Class of executed instruction
system.cpu.op_class::SimdAes                        0      0.00%     68.26% # Class of executed instruction
system.cpu.op_class::SimdAesMix                     0      0.00%     68.26% # Class of executed instruction
system.cpu.op_class::SimdSha1Hash                   0      0.00%     68.26% # Class of executed instruction
system.cpu.op_class::SimdSha1Hash2                  0      0.00%     68.26% # Class of executed instruction
system.cpu.op_class::SimdSha256Hash                 0      0.00%     68.26% # Class of executed instruction
system.cpu.op_class::SimdSha256Hash2                0      0.00%     68.26% # Class of executed instruction
system.cpu.op_class::SimdShaSigma2                  0      0.00%     68.26% # Class of executed instruction
system.cpu.op_class::SimdShaSigma3                  0      0.00%     68.26% # Class of executed instruction
system.cpu.op_class::SimdPredAlu                    0      0.00%     68.26% # Class of executed instruction
system.cpu.op_class::MemRead                  1225920      0.16%     68.42% # Class of executed instruction
system.cpu.op_class::MemWrite                 8411222      1.09%     69.51% # Class of executed instruction
system.cpu.op_class::FloatMemRead           149829143     19.44%     88.95% # Class of executed instruction
system.cpu.op_class::FloatMemWrite           85189215     11.05%    100.00% # Class of executed instruction
system.cpu.op_class::IprAccess                      0      0.00%    100.00% # Class of executed instruction
system.cpu.op_class::InstPrefetch                   0      0.00%    100.00% # Class of executed instruction
system.cpu.op_class::total                  770903921                       # Class of executed instruction
system.cpu.workload.numSyscalls                    85                       # Number of system calls
system.l2bus.snoop_filter.hit_multi_requests            0                       # Number of requests hitting in the snoop filter with multiple (>1) holders of the requested data.
system.l2bus.snoop_filter.hit_multi_snoops            0                       # Number of snoops hitting in the snoop filter with multiple (>1) holders of the requested data.
system.l2bus.snoop_filter.hit_single_requests      4513452                       # Number of requests hitting in the snoop filter with a single holder of the requested data.
system.l2bus.snoop_filter.hit_single_snoops          224                       # Number of snoops hitting in the snoop filter with a single holder of the requested data.
system.l2bus.snoop_filter.tot_requests        9028184                       # Total number of requests made to the snoop filter.
system.l2bus.snoop_filter.tot_snoops              224                       # Total number of snoops made to the snoop filter.
system.membus.snoop_filter.hit_multi_requests            0                       # Number of requests hitting in the snoop filter with multiple (>1) holders of the requested data.
system.membus.snoop_filter.hit_multi_snoops            0                       # Number of snoops hitting in the snoop filter with multiple (>1) holders of the requested data.
system.membus.snoop_filter.hit_single_requests          143                       # Number of requests hitting in the snoop filter with a single holder of the requested data.
system.membus.snoop_filter.hit_single_snoops            0                       # Number of snoops hitting in the snoop filter with a single holder of the requested data.
system.membus.snoop_filter.tot_requests          9733                       # Total number of requests made to the snoop filter.
system.membus.snoop_filter.tot_snoops               0                       # Total number of snoops made to the snoop filter.
system.clk_domain.clock                          1000                       # Clock period in ticks
system.clk_domain.voltage_domain.voltage            1                       # Voltage in Volts
system.cpu.dcache.demand_hits::.cpu.data    243143526                       # number of demand (read+write) hits
system.cpu.dcache.demand_hits::total        243143526                       # number of demand (read+write) hits
system.cpu.dcache.overall_hits::.cpu.data    243143526                       # number of overall hits
system.cpu.dcache.overall_hits::total       243143526                       # number of overall hits
system.cpu.dcache.demand_misses::.cpu.data      1512015                       # number of demand (read+write) misses
system.cpu.dcache.demand_misses::total        1512015                       # number of demand (read+write) misses
system.cpu.dcache.overall_misses::.cpu.data      1512015                       # number of overall misses
system.cpu.dcache.overall_misses::total       1512015                       # number of overall misses
system.cpu.dcache.demand_miss_latency::.cpu.data  39835807000                       # number of demand (read+write) miss cycles
system.cpu.dcache.demand_miss_latency::total  39835807000                       # number of demand (read+write) miss cycles
system.cpu.dcache.overall_miss_latency::.cpu.data  39835807000                       # number of overall miss cycles
system.cpu.dcache.overall_miss_latency::total  39835807000                       # number of overall miss cycles
system.cpu.dcache.demand_accesses::.cpu.data    244655541                       # number of demand (read+write) accesses
system.cpu.dcache.demand_accesses::total    244655541                       # number of demand (read+write) accesses
system.cpu.dcache.overall_accesses::.cpu.data    244655541                       # number of overall (read+write) accesses
system.cpu.dcache.overall_accesses::total    244655541                       # number of overall (read+write) accesses
system.cpu.dcache.demand_miss_rate::.cpu.data     0.006180                       # miss rate for demand accesses
system.cpu.dcache.demand_miss_rate::total     0.006180                       # miss rate for demand accesses
system.cpu.dcache.overall_miss_rate::.cpu.data     0.006180                       # miss rate for overall accesses
system.cpu.dcache.overall_miss_rate::total     0.006180                       # miss rate for overall accesses
system.cpu.dcache.demand_avg_miss_latency::.cpu.data 26346.171830                       # average overall miss latency
system.cpu.dcache.demand_avg_miss_latency::total 26346.171830                       # average overall miss latency
system.cpu.dcache.overall_avg_miss_latency::.cpu.data 26346.171830                       # average overall miss latency
system.cpu.dcache.overall_avg_miss_latency::total 26346.171830                       # average overall miss latency
system.cpu.dcache.blocked_cycles::no_mshrs            0                       # number of cycles access was blocked
system.cpu.dcache.blocked_cycles::no_targets            0                       # number of cycles access was blocked
system.cpu.dcache.blocked::no_mshrs                 0                       # number of cycles access was blocked
system.cpu.dcache.blocked::no_targets               0                       # number of cycles access was blocked
system.cpu.dcache.avg_blocked_cycles::no_mshrs          nan                       # average number of cycles each access was blocked
system.cpu.dcache.avg_blocked_cycles::no_targets          nan                       # average number of cycles each access was blocked
system.cpu.dcache.writebacks::.writebacks      1509390                       # number of writebacks
system.cpu.dcache.writebacks::total           1509390                       # number of writebacks
system.cpu.dcache.demand_mshr_misses::.cpu.data      1512015                       # number of demand (read+write) MSHR misses
system.cpu.dcache.demand_mshr_misses::total      1512015                       # number of demand (read+write) MSHR misses
system.cpu.dcache.overall_mshr_misses::.cpu.data      1512015                       # number of overall MSHR misses
system.cpu.dcache.overall_mshr_misses::total      1512015                       # number of overall MSHR misses
system.cpu.dcache.demand_mshr_miss_latency::.cpu.data  36811777000                       # number of demand (read+write) MSHR miss cycles
system.cpu.dcache.demand_mshr_miss_latency::total  36811777000                       # number of demand (read+write) MSHR miss cycles
system.cpu.dcache.overall_mshr_miss_latency::.cpu.data  36811777000                       # number of overall MSHR miss cycles
system.cpu.dcache.overall_mshr_miss_latency::total  36811777000                       # number of overall MSHR miss cycles
system.cpu.dcache.demand_mshr_miss_rate::.cpu.data     0.006180                       # mshr miss rate for demand accesses
system.cpu.dcache.demand_mshr_miss_rate::total     0.006180                       # mshr miss rate for demand accesses
system.cpu.dcache.overall_mshr_miss_rate::.cpu.data     0.006180                       # mshr miss rate for overall accesses
system.cpu.dcache.overall_mshr_miss_rate::total     0.006180                       # mshr miss rate for overall accesses
system.cpu.dcache.demand_avg_mshr_miss_latency::.cpu.data 24346.171830                       # average overall mshr miss latency
system.cpu.dcache.demand_avg_mshr_miss_latency::total 24346.171830                       # average overall mshr miss latency
system.cpu.dcache.overall_avg_mshr_miss_latency::.cpu.data 24346.171830                       # average overall mshr miss latency
system.cpu.dcache.overall_avg_mshr_miss_latency::total 24346.171830                       # average overall mshr miss latency
system.cpu.dcache.replacements                1510991                       # number of replacements
system.cpu.dcache.ReadReq_hits::.cpu.data    149747004                       # number of ReadReq hits
system.cpu.dcache.ReadReq_hits::total       149747004                       # number of ReadReq hits
system.cpu.dcache.ReadReq_misses::.cpu.data      1308087                       # number of ReadReq misses
system.cpu.dcache.ReadReq_misses::total       1308087                       # number of ReadReq misses
system.cpu.dcache.ReadReq_miss_latency::.cpu.data  34040806000                       # number of ReadReq miss cycles
system.cpu.dcache.ReadReq_miss_latency::total  34040806000                       # number of ReadReq miss cycles
system.cpu.dcache.ReadReq_accesses::.cpu.data    151055091                       # number of ReadReq accesses(hits+misses)
system.cpu.dcache.ReadReq_accesses::total    151055091                       # number of ReadReq accesses(hits+misses)
system.cpu.dcache.ReadReq_miss_rate::.cpu.data     0.008660                       # miss rate for ReadReq accesses
system.cpu.dcache.ReadReq_miss_rate::total     0.008660                       # miss rate for ReadReq accesses
system.cpu.dcache.ReadReq_avg_miss_latency::.cpu.data 26023.350129                       # average ReadReq miss latency
system.cpu.dcache.ReadReq_avg_miss_latency::total 26023.350129                       # average ReadReq miss latency
system.cpu.dcache.ReadReq_mshr_misses::.cpu.data      1308087                       # number of ReadReq MSHR misses
system.cpu.dcache.ReadReq_mshr_misses::total      1308087                       # number of ReadReq MSHR misses
system.cpu.dcache.ReadReq_mshr_miss_latency::.cpu.data  31424632000                       # number of ReadReq MSHR miss cycles
system.cpu.dcache.ReadReq_mshr_miss_latency::total  31424632000                       # number of ReadReq MSHR miss cycles
system.cpu.dcache.ReadReq_mshr_miss_rate::.cpu.data     0.008660                       # mshr miss rate for ReadReq accesses
system.cpu.dcache.ReadReq_mshr_miss_rate::total     0.008660                       # mshr miss rate for ReadReq accesses
system.cpu.dcache.ReadReq_avg_mshr_miss_latency::.cpu.data 24023.350129                       # average ReadReq mshr miss latency
system.cpu.dcache.ReadReq_avg_mshr_miss_latency::total 24023.350129                       # average ReadReq mshr miss latency
system.cpu.dcache.WriteReq_hits::.cpu.data     93396522                       # number of WriteReq hits
system.cpu.dcache.WriteReq_hits::total       93396522                       # number of WriteReq hits
system.cpu.dcache.WriteReq_misses::.cpu.data       203928                       # number of WriteReq misses
system.cpu.dcache.WriteReq_misses::total       203928                       # number of WriteReq misses
system.cpu.dcache.WriteReq_miss_latency::.cpu.data   5795001000                       # number of WriteReq miss cycles
system.cpu.dcache.WriteReq_miss_latency::total   5795001000                       # number of WriteReq miss cycles
system.cpu.dcache.WriteReq_accesses::.cpu.data     93600450                       # number of WriteReq accesses(hits+misses)
system.cpu.dcache.WriteReq_accesses::total     93600450                       # number of WriteReq accesses(hits+misses)
system.cpu.dcache.WriteReq_miss_rate::.cpu.data     0.002179                       # miss rate for WriteReq accesses
system.cpu.dcache.WriteReq_miss_rate::total     0.002179                       # miss rate for WriteReq accesses
system.cpu.dcache.WriteReq_avg_miss_latency::.cpu.data 28416.897140                       # average WriteReq miss latency
system.cpu.dcache.WriteReq_avg_miss_latency::total 28416.897140                       # average WriteReq miss latency
system.cpu.dcache.WriteReq_mshr_misses::.cpu.data       203928                       # number of WriteReq MSHR misses
system.cpu.dcache.WriteReq_mshr_misses::total       203928                       # number of WriteReq MSHR misses
system.cpu.dcache.WriteReq_mshr_miss_latency::.cpu.data   5387145000                       # number of WriteReq MSHR miss cycles
system.cpu.dcache.WriteReq_mshr_miss_latency::total   5387145000                       # number of WriteReq MSHR miss cycles
system.cpu.dcache.WriteReq_mshr_miss_rate::.cpu.data     0.002179                       # mshr miss rate for WriteReq accesses
system.cpu.dcache.WriteReq_mshr_miss_rate::total     0.002179                       # mshr miss rate for WriteReq accesses
system.cpu.dcache.WriteReq_avg_mshr_miss_latency::.cpu.data 26416.897140                       # average WriteReq mshr miss latency
system.cpu.dcache.WriteReq_avg_mshr_miss_latency::total 26416.897140                       # average WriteReq mshr miss latency
system.cpu.dcache.power_state.pwrStateResidencyTicks::UNDEFINED 2288176798000                       # Cumulative time (in ticks) in various power states
system.cpu.dcache.tags.tagsinuse          1023.843991                       # Cycle average of tags in use
system.cpu.dcache.tags.total_refs           244655541                       # Total number of references to valid blocks.
system.cpu.dcache.tags.sampled_refs           1512015                       # Sample count of references to valid blocks.
system.cpu.dcache.tags.avg_refs            161.807615                       # Average number of references to valid blocks.
system.cpu.dcache.tags.warmup_cycle            224000                       # Cycle when the warmup percentage was hit.
system.cpu.dcache.tags.occ_blocks::.cpu.data  1023.843991                       # Average occupied blocks per requestor
system.cpu.dcache.tags.occ_percent::.cpu.data     0.999848                       # Average percentage of cache occupancy
system.cpu.dcache.tags.occ_percent::total     0.999848                       # Average percentage of cache occupancy
system.cpu.dcache.tags.occ_task_id_blocks::1024         1024                       # Occupied blocks per task id
system.cpu.dcache.tags.age_task_id_blocks_1024::0           37                       # Occupied blocks per task id
system.cpu.dcache.tags.age_task_id_blocks_1024::1           74                       # Occupied blocks per task id
system.cpu.dcache.tags.age_task_id_blocks_1024::2          498                       # Occupied blocks per task id
system.cpu.dcache.tags.age_task_id_blocks_1024::3          415                       # Occupied blocks per task id
system.cpu.dcache.tags.occ_task_id_percent::1024            1                       # Percentage of cache occupancy per task id
system.cpu.dcache.tags.tag_accesses         490823097                       # Number of tag accesses
system.cpu.dcache.tags.data_accesses        490823097                       # Number of data accesses
system.cpu.dcache.tags.power_state.pwrStateResidencyTicks::UNDEFINED 2288176798000                       # Cumulative time (in ticks) in various power states
system.cpu.dtb.rdAccesses                   151055092                       # TLB accesses on read requests
system.cpu.dtb.wrAccesses                    93600473                       # TLB accesses on write requests
system.cpu.dtb.rdMisses                          4202                       # TLB misses on read requests
system.cpu.dtb.wrMisses                          2551                       # TLB misses on write requests
system.cpu.dtb.walker.power_state.pwrStateResidencyTicks::UNDEFINED 2288176798000                       # Cumulative time (in ticks) in various power states
system.cpu.icache.demand_hits::.cpu.inst    841887864                       # number of demand (read+write) hits
system.cpu.icache.demand_hits::total        841887864                       # number of demand (read+write) hits
system.cpu.icache.overall_hits::.cpu.inst    841887864                       # number of overall hits
system.cpu.icache.overall_hits::total       841887864                       # number of overall hits
system.cpu.icache.demand_misses::.cpu.inst      3002717                       # number of demand (read+write) misses
system.cpu.icache.demand_misses::total        3002717                       # number of demand (read+write) misses
system.cpu.icache.overall_misses::.cpu.inst      3002717                       # number of overall misses
system.cpu.icache.overall_misses::total       3002717                       # number of overall misses
system.cpu.icache.demand_miss_latency::.cpu.inst  78278279000                       # number of demand (read+write) miss cycles
system.cpu.icache.demand_miss_latency::total  78278279000                       # number of demand (read+write) miss cycles
system.cpu.icache.overall_miss_latency::.cpu.inst  78278279000                       # number of overall miss cycles
system.cpu.icache.overall_miss_latency::total  78278279000                       # number of overall miss cycles
system.cpu.icache.demand_accesses::.cpu.inst    844890581                       # number of demand (read+write) accesses
system.cpu.icache.demand_accesses::total    844890581                       # number of demand (read+write) accesses
system.cpu.icache.overall_accesses::.cpu.inst    844890581                       # number of overall (read+write) accesses
system.cpu.icache.overall_accesses::total    844890581                       # number of overall (read+write) accesses
system.cpu.icache.demand_miss_rate::.cpu.inst     0.003554                       # miss rate for demand accesses
system.cpu.icache.demand_miss_rate::total     0.003554                       # miss rate for demand accesses
system.cpu.icache.overall_miss_rate::.cpu.inst     0.003554                       # miss rate for overall accesses
system.cpu.icache.overall_miss_rate::total     0.003554                       # miss rate for overall accesses
system.cpu.icache.demand_avg_miss_latency::.cpu.inst 26069.149707                       # average overall miss latency
system.cpu.icache.demand_avg_miss_latency::total 26069.149707                       # average overall miss latency
system.cpu.icache.overall_avg_miss_latency::.cpu.inst 26069.149707                       # average overall miss latency
system.cpu.icache.overall_avg_miss_latency::total 26069.149707                       # average overall miss latency
system.cpu.icache.blocked_cycles::no_mshrs            0                       # number of cycles access was blocked
system.cpu.icache.blocked_cycles::no_targets            0                       # number of cycles access was blocked
system.cpu.icache.blocked::no_mshrs                 0                       # number of cycles access was blocked
system.cpu.icache.blocked::no_targets               0                       # number of cycles access was blocked
system.cpu.icache.avg_blocked_cycles::no_mshrs          nan                       # average number of cycles each access was blocked
system.cpu.icache.avg_blocked_cycles::no_targets          nan                       # average number of cycles each access was blocked
system.cpu.icache.demand_mshr_misses::.cpu.inst      3002717                       # number of demand (read+write) MSHR misses
system.cpu.icache.demand_mshr_misses::total      3002717                       # number of demand (read+write) MSHR misses
system.cpu.icache.overall_mshr_misses::.cpu.inst      3002717                       # number of overall MSHR misses
system.cpu.icache.overall_mshr_misses::total      3002717                       # number of overall MSHR misses
system.cpu.icache.demand_mshr_miss_latency::.cpu.inst  72272845000                       # number of demand (read+write) MSHR miss cycles
system.cpu.icache.demand_mshr_miss_latency::total  72272845000                       # number of demand (read+write) MSHR miss cycles
system.cpu.icache.overall_mshr_miss_latency::.cpu.inst  72272845000                       # number of overall MSHR miss cycles
system.cpu.icache.overall_mshr_miss_latency::total  72272845000                       # number of overall MSHR miss cycles
system.cpu.icache.demand_mshr_miss_rate::.cpu.inst     0.003554                       # mshr miss rate for demand accesses
system.cpu.icache.demand_mshr_miss_rate::total     0.003554                       # mshr miss rate for demand accesses
system.cpu.icache.overall_mshr_miss_rate::.cpu.inst     0.003554                       # mshr miss rate for overall accesses
system.cpu.icache.overall_mshr_miss_rate::total     0.003554                       # mshr miss rate for overall accesses
system.cpu.icache.demand_avg_mshr_miss_latency::.cpu.inst 24069.149707                       # average overall mshr miss latency
system.cpu.icache.demand_avg_mshr_miss_latency::total 24069.149707                       # average overall mshr miss latency
system.cpu.icache.overall_avg_mshr_miss_latency::.cpu.inst 24069.149707                       # average overall mshr miss latency
system.cpu.icache.overall_avg_mshr_miss_latency::total 24069.149707                       # average overall mshr miss latency
system.cpu.icache.replacements                3002461                       # number of replacements
system.cpu.icache.ReadReq_hits::.cpu.inst    841887864                       # number of ReadReq hits
system.cpu.icache.ReadReq_hits::total       841887864                       # number of ReadReq hits
system.cpu.icache.ReadReq_misses::.cpu.inst      3002717                       # number of ReadReq misses
system.cpu.icache.ReadReq_misses::total       3002717                       # number of ReadReq misses
system.cpu.icache.ReadReq_miss_latency::.cpu.inst  78278279000                       # number of ReadReq miss cycles
system.cpu.icache.ReadReq_miss_latency::total  78278279000                       # number of ReadReq miss cycles
system.cpu.icache.ReadReq_accesses::.cpu.inst    844890581                       # number of ReadReq accesses(hits+misses)
system.cpu.icache.ReadReq_accesses::total    844890581                       # number of ReadReq accesses(hits+misses)
system.cpu.icache.ReadReq_miss_rate::.cpu.inst     0.003554                       # miss rate for ReadReq accesses
system.cpu.icache.ReadReq_miss_rate::total     0.003554                       # miss rate for ReadReq accesses
system.cpu.icache.ReadReq_avg_miss_latency::.cpu.inst 26069.149707                       # average ReadReq miss latency
system.cpu.icache.ReadReq_avg_miss_latency::total 26069.149707                       # average ReadReq miss latency
system.cpu.icache.ReadReq_mshr_misses::.cpu.inst      3002717                       # number of ReadReq MSHR misses
system.cpu.icache.ReadReq_mshr_misses::total      3002717                       # number of ReadReq MSHR misses
system.cpu.icache.ReadReq_mshr_miss_latency::.cpu.inst  72272845000                       # number of ReadReq MSHR miss cycles
system.cpu.icache.ReadReq_mshr_miss_latency::total  72272845000                       # number of ReadReq MSHR miss cycles
system.cpu.icache.ReadReq_mshr_miss_rate::.cpu.inst     0.003554                       # mshr miss rate for ReadReq accesses
system.cpu.icache.ReadReq_mshr_miss_rate::total     0.003554                       # mshr miss rate for ReadReq accesses
system.cpu.icache.ReadReq_avg_mshr_miss_latency::.cpu.inst 24069.149707                       # average ReadReq mshr miss latency
system.cpu.icache.ReadReq_avg_mshr_miss_latency::total 24069.149707                       # average ReadReq mshr miss latency
system.cpu.icache.power_state.pwrStateResidencyTicks::UNDEFINED 2288176798000                       # Cumulative time (in ticks) in various power states
system.cpu.icache.tags.tagsinuse           255.994369                       # Cycle average of tags in use
system.cpu.icache.tags.total_refs           844890581                       # Total number of references to valid blocks.
system.cpu.icache.tags.sampled_refs           3002717                       # Sample count of references to valid blocks.
system.cpu.icache.tags.avg_refs            281.375361                       # Average number of references to valid blocks.
system.cpu.icache.tags.warmup_cycle            107000                       # Cycle when the warmup percentage was hit.
system.cpu.icache.tags.occ_blocks::.cpu.inst   255.994369                       # Average occupied blocks per requestor
system.cpu.icache.tags.occ_percent::.cpu.inst     0.999978                       # Average percentage of cache occupancy
system.cpu.icache.tags.occ_percent::total     0.999978                       # Average percentage of cache occupancy
system.cpu.icache.tags.occ_task_id_blocks::1024          256                       # Occupied blocks per task id
system.cpu.icache.tags.age_task_id_blocks_1024::0           35                       # Occupied blocks per task id
system.cpu.icache.tags.age_task_id_blocks_1024::1          115                       # Occupied blocks per task id
system.cpu.icache.tags.age_task_id_blocks_1024::2           98                       # Occupied blocks per task id
system.cpu.icache.tags.age_task_id_blocks_1024::3            8                       # Occupied blocks per task id
system.cpu.icache.tags.occ_task_id_percent::1024            1                       # Percentage of cache occupancy per task id
system.cpu.icache.tags.tag_accesses        1692783879                       # Number of tag accesses
system.cpu.icache.tags.data_accesses       1692783879                       # Number of data accesses
system.cpu.icache.tags.power_state.pwrStateResidencyTicks::UNDEFINED 2288176798000                       # Cumulative time (in ticks) in various power states
system.cpu.interrupts.clk_domain.clock          16000                       # Clock period in ticks
system.cpu.itb.rdAccesses                           0                       # TLB accesses on read requests
system.cpu.itb.wrAccesses                   844890581                       # TLB accesses on write requests
system.cpu.itb.rdMisses                             0                       # TLB misses on read requests
system.cpu.itb.wrMisses                           158                       # TLB misses on write requests
system.cpu.itb.walker.power_state.pwrStateResidencyTicks::UNDEFINED 2288176798000                       # Cumulative time (in ticks) in various power states
system.cpu.power_state.pwrStateResidencyTicks::ON 2288176798000                       # Cumulative time (in ticks) in various power states
system.cpu.thread_0.numInsts                        0                       # Number of Instructions committed
system.cpu.thread_0.numOps                          0                       # Number of Ops committed
system.cpu.thread_0.numMemRefs                      0                       # Number of Memory References
system.l2bus.trans_dist::ReadResp             4310804                       # Transaction distribution
system.l2bus.trans_dist::WritebackDirty       1509390                       # Transaction distribution
system.l2bus.trans_dist::CleanEvict           3004286                       # Transaction distribution
system.l2bus.trans_dist::ReadExReq             203928                       # Transaction distribution
system.l2bus.trans_dist::ReadExResp            203928                       # Transaction distribution
system.l2bus.trans_dist::ReadSharedReq        4310804                       # Transaction distribution
system.l2bus.pkt_count_system.cpu.icache.mem_side_port::system.l2cache.cpu_side_port      9007895                       # Packet count per connected requestor and responder (bytes)
system.l2bus.pkt_count_system.cpu.dcache.mem_side_port::system.l2cache.cpu_side_port      4535021                       # Packet count per connected requestor and responder (bytes)
system.l2bus.pkt_count::total                13542916                       # Packet count per connected requestor and responder (bytes)
system.l2bus.pkt_size_system.cpu.icache.mem_side_port::system.l2cache.cpu_side_port    192173888                       # Cumulative packet size per connected requestor and responder (bytes)
system.l2bus.pkt_size_system.cpu.dcache.mem_side_port::system.l2cache.cpu_side_port    193369920                       # Cumulative packet size per connected requestor and responder (bytes)
system.l2bus.pkt_size::total                385543808                       # Cumulative packet size per connected requestor and responder (bytes)
system.l2bus.snoops                               224                       # Total snoops (count)
system.l2bus.snoopTraffic                           0                       # Total snoop traffic (bytes)
system.l2bus.snoop_fanout::samples            4514956                       # Request fanout histogram
system.l2bus.snoop_fanout::mean              0.000050                       # Request fanout histogram
system.l2bus.snoop_fanout::stdev             0.007043                       # Request fanout histogram
system.l2bus.snoop_fanout::underflows               0      0.00%      0.00% # Request fanout histogram
system.l2bus.snoop_fanout::0                  4514732    100.00%    100.00% # Request fanout histogram
system.l2bus.snoop_fanout::1                      224      0.00%    100.00% # Request fanout histogram
system.l2bus.snoop_fanout::2                        0      0.00%    100.00% # Request fanout histogram
system.l2bus.snoop_fanout::overflows                0      0.00%    100.00% # Request fanout histogram
system.l2bus.snoop_fanout::min_value                0                       # Request fanout histogram
system.l2bus.snoop_fanout::max_value                1                       # Request fanout histogram
system.l2bus.snoop_fanout::total              4514956                       # Request fanout histogram
system.l2bus.power_state.pwrStateResidencyTicks::UNDEFINED 2288176798000                       # Cumulative time (in ticks) in various power states
system.l2bus.reqLayer0.occupancy          12046964000                       # Layer occupancy (ticks)
system.l2bus.reqLayer0.utilization                0.5                       # Layer utilization (%)
system.l2bus.respLayer0.occupancy          9008151000                       # Layer occupancy (ticks)
system.l2bus.respLayer0.utilization               0.4                       # Layer utilization (%)
system.l2bus.respLayer1.occupancy          4536045000                       # Layer occupancy (ticks)
system.l2bus.respLayer1.utilization               0.2                       # Layer utilization (%)
system.l2cache.demand_hits::.cpu.inst         3000013                       # number of demand (read+write) hits
system.l2cache.demand_hits::.cpu.data         1505129                       # number of demand (read+write) hits
system.l2cache.demand_hits::total             4505142                       # number of demand (read+write) hits
system.l2cache.overall_hits::.cpu.inst        3000013                       # number of overall hits
system.l2cache.overall_hits::.cpu.data        1505129                       # number of overall hits
system.l2cache.overall_hits::total            4505142                       # number of overall hits
system.l2cache.demand_misses::.cpu.inst          2704                       # number of demand (read+write) misses
system.l2cache.demand_misses::.cpu.data          6886                       # number of demand (read+write) misses
system.l2cache.demand_misses::total              9590                       # number of demand (read+write) misses
system.l2cache.overall_misses::.cpu.inst         2704                       # number of overall misses
system.l2cache.overall_misses::.cpu.data         6886                       # number of overall misses
system.l2cache.overall_misses::total             9590                       # number of overall misses
system.l2cache.demand_miss_latency::.cpu.inst    263881000                       # number of demand (read+write) miss cycles
system.l2cache.demand_miss_latency::.cpu.data    659410000                       # number of demand (read+write) miss cycles
system.l2cache.demand_miss_latency::total    923291000                       # number of demand (read+write) miss cycles
system.l2cache.overall_miss_latency::.cpu.inst    263881000                       # number of overall miss cycles
system.l2cache.overall_miss_latency::.cpu.data    659410000                       # number of overall miss cycles
system.l2cache.overall_miss_latency::total    923291000                       # number of overall miss cycles
system.l2cache.demand_accesses::.cpu.inst      3002717                       # number of demand (read+write) accesses
system.l2cache.demand_accesses::.cpu.data      1512015                       # number of demand (read+write) accesses
system.l2cache.demand_accesses::total         4514732                       # number of demand (read+write) accesses
system.l2cache.overall_accesses::.cpu.inst      3002717                       # number of overall (read+write) accesses
system.l2cache.overall_accesses::.cpu.data      1512015                       # number of overall (read+write) accesses
system.l2cache.overall_accesses::total        4514732                       # number of overall (read+write) accesses
system.l2cache.demand_miss_rate::.cpu.inst     0.000901                       # miss rate for demand accesses
system.l2cache.demand_miss_rate::.cpu.data     0.004554                       # miss rate for demand accesses
system.l2cache.demand_miss_rate::total       0.002124                       # miss rate for demand accesses
system.l2cache.overall_miss_rate::.cpu.inst     0.000901                       # miss rate for overall accesses
system.l2cache.overall_miss_rate::.cpu.data     0.004554                       # miss rate for overall accesses
system.l2cache.overall_miss_rate::total      0.002124                       # miss rate for overall accesses
system.l2cache.demand_avg_miss_latency::.cpu.inst 97589.127219                       # average overall miss latency
system.l2cache.demand_avg_miss_latency::.cpu.data 95760.964275                       # average overall miss latency
system.l2cache.demand_avg_miss_latency::total 96276.433785                       # average overall miss latency
system.l2cache.overall_avg_miss_latency::.cpu.inst 97589.127219                       # average overall miss latency
system.l2cache.overall_avg_miss_latency::.cpu.data 95760.964275                       # average overall miss latency
system.l2cache.overall_avg_miss_latency::total 96276.433785                       # average overall miss latency
system.l2cache.blocked_cycles::no_mshrs             0                       # number of cycles access was blocked
system.l2cache.blocked_cycles::no_targets            0                       # number of cycles access was blocked
system.l2cache.blocked::no_mshrs                    0                       # number of cycles access was blocked
system.l2cache.blocked::no_targets                  0                       # number of cycles access was blocked
system.l2cache.avg_blocked_cycles::no_mshrs          nan                       # average number of cycles each access was blocked
system.l2cache.avg_blocked_cycles::no_targets          nan                       # average number of cycles each access was blocked
system.l2cache.demand_mshr_misses::.cpu.inst         2704                       # number of demand (read+write) MSHR misses
system.l2cache.demand_mshr_misses::.cpu.data         6886                       # number of demand (read+write) MSHR misses
system.l2cache.demand_mshr_misses::total         9590                       # number of demand (read+write) MSHR misses
system.l2cache.overall_mshr_misses::.cpu.inst         2704                       # number of overall MSHR misses
system.l2cache.overall_mshr_misses::.cpu.data         6886                       # number of overall MSHR misses
system.l2cache.overall_mshr_misses::total         9590                       # number of overall MSHR misses
system.l2cache.demand_mshr_miss_latency::.cpu.inst    209801000                       # number of demand (read+write) MSHR miss cycles
system.l2cache.demand_mshr_miss_latency::.cpu.data    521690000                       # number of demand (read+write) MSHR miss cycles
system.l2cache.demand_mshr_miss_latency::total    731491000                       # number of demand (read+write) MSHR miss cycles
system.l2cache.overall_mshr_miss_latency::.cpu.inst    209801000                       # number of overall MSHR miss cycles
system.l2cache.overall_mshr_miss_latency::.cpu.data    521690000                       # number of overall MSHR miss cycles
system.l2cache.overall_mshr_miss_latency::total    731491000                       # number of overall MSHR miss cycles
system.l2cache.demand_mshr_miss_rate::.cpu.inst     0.000901                       # mshr miss rate for demand accesses
system.l2cache.demand_mshr_miss_rate::.cpu.data     0.004554                       # mshr miss rate for demand accesses
system.l2cache.demand_mshr_miss_rate::total     0.002124                       # mshr miss rate for demand accesses
system.l2cache.overall_mshr_miss_rate::.cpu.inst     0.000901                       # mshr miss rate for overall accesses
system.l2cache.overall_mshr_miss_rate::.cpu.data     0.004554                       # mshr miss rate for overall accesses
system.l2cache.overall_mshr_miss_rate::total     0.002124                       # mshr miss rate for overall accesses
system.l2cache.demand_avg_mshr_miss_latency::.cpu.inst 77589.127219                       # average overall mshr miss latency
system.l2cache.demand_avg_mshr_miss_latency::.cpu.data 75760.964275                       # average overall mshr miss latency
system.l2cache.demand_avg_mshr_miss_latency::total 76276.433785                       # average overall mshr miss latency
system.l2cache.overall_avg_mshr_miss_latency::.cpu.inst 77589.127219                       # average overall mshr miss latency
system.l2cache.overall_avg_mshr_miss_latency::.cpu.data 75760.964275                       # average overall mshr miss latency
system.l2cache.overall_avg_mshr_miss_latency::total 76276.433785                       # average overall mshr miss latency
system.l2cache.replacements                         0                       # number of replacements
system.l2cache.WritebackDirty_hits::.writebacks      1509389                       # number of WritebackDirty hits
system.l2cache.WritebackDirty_hits::total      1509389                       # number of WritebackDirty hits
system.l2cache.WritebackDirty_misses::.writebacks            1                       # number of WritebackDirty misses
system.l2cache.WritebackDirty_misses::total            1                       # number of WritebackDirty misses
system.l2cache.WritebackDirty_accesses::.writebacks      1509390                       # number of WritebackDirty accesses(hits+misses)
system.l2cache.WritebackDirty_accesses::total      1509390                       # number of WritebackDirty accesses(hits+misses)
system.l2cache.WritebackDirty_miss_rate::.writebacks     0.000001                       # miss rate for WritebackDirty accesses
system.l2cache.WritebackDirty_miss_rate::total     0.000001                       # miss rate for WritebackDirty accesses
system.l2cache.WritebackDirty_mshr_misses::.writebacks            1                       # number of WritebackDirty MSHR misses
system.l2cache.WritebackDirty_mshr_misses::total            1                       # number of WritebackDirty MSHR misses
system.l2cache.WritebackDirty_mshr_miss_rate::.writebacks     0.000001                       # mshr miss rate for WritebackDirty accesses
system.l2cache.WritebackDirty_mshr_miss_rate::total     0.000001                       # mshr miss rate for WritebackDirty accesses
system.l2cache.CleanEvict_mshr_misses::.writebacks          142                       # number of CleanEvict MSHR misses
system.l2cache.CleanEvict_mshr_misses::total          142                       # number of CleanEvict MSHR misses
system.l2cache.CleanEvict_mshr_miss_rate::.writebacks          inf                       # mshr miss rate for CleanEvict accesses
system.l2cache.CleanEvict_mshr_miss_rate::total          inf                       # mshr miss rate for CleanEvict accesses
system.l2cache.ReadExReq_hits::.cpu.data       197338                       # number of ReadExReq hits
system.l2cache.ReadExReq_hits::total           197338                       # number of ReadExReq hits
system.l2cache.ReadExReq_misses::.cpu.data         6590                       # number of ReadExReq misses
system.l2cache.ReadExReq_misses::total           6590                       # number of ReadExReq misses
system.l2cache.ReadExReq_miss_latency::.cpu.data    628414000                       # number of ReadExReq miss cycles
system.l2cache.ReadExReq_miss_latency::total    628414000                       # number of ReadExReq miss cycles
system.l2cache.ReadExReq_accesses::.cpu.data       203928                       # number of ReadExReq accesses(hits+misses)
system.l2cache.ReadExReq_accesses::total       203928                       # number of ReadExReq accesses(hits+misses)
system.l2cache.ReadExReq_miss_rate::.cpu.data     0.032315                       # miss rate for ReadExReq accesses
system.l2cache.ReadExReq_miss_rate::total     0.032315                       # miss rate for ReadExReq accesses
system.l2cache.ReadExReq_avg_miss_latency::.cpu.data 95358.725341                       # average ReadExReq miss latency
system.l2cache.ReadExReq_avg_miss_latency::total 95358.725341                       # average ReadExReq miss latency
system.l2cache.ReadExReq_mshr_misses::.cpu.data         6590                       # number of ReadExReq MSHR misses
system.l2cache.ReadExReq_mshr_misses::total         6590                       # number of ReadExReq MSHR misses
system.l2cache.ReadExReq_mshr_miss_latency::.cpu.data    496614000                       # number of ReadExReq MSHR miss cycles
system.l2cache.ReadExReq_mshr_miss_latency::total    496614000                       # number of ReadExReq MSHR miss cycles
system.l2cache.ReadExReq_mshr_miss_rate::.cpu.data     0.032315                       # mshr miss rate for ReadExReq accesses
system.l2cache.ReadExReq_mshr_miss_rate::total     0.032315                       # mshr miss rate for ReadExReq accesses
system.l2cache.ReadExReq_avg_mshr_miss_latency::.cpu.data 75358.725341                       # average ReadExReq mshr miss latency
system.l2cache.ReadExReq_avg_mshr_miss_latency::total 75358.725341                       # average ReadExReq mshr miss latency
system.l2cache.ReadSharedReq_hits::.cpu.inst      3000013                       # number of ReadSharedReq hits
system.l2cache.ReadSharedReq_hits::.cpu.data      1307791                       # number of ReadSharedReq hits
system.l2cache.ReadSharedReq_hits::total      4307804                       # number of ReadSharedReq hits
system.l2cache.ReadSharedReq_misses::.cpu.inst         2704                       # number of ReadSharedReq misses
system.l2cache.ReadSharedReq_misses::.cpu.data          296                       # number of ReadSharedReq misses
system.l2cache.ReadSharedReq_misses::total         3000                       # number of ReadSharedReq misses
system.l2cache.ReadSharedReq_miss_latency::.cpu.inst    263881000                       # number of ReadSharedReq miss cycles
system.l2cache.ReadSharedReq_miss_latency::.cpu.data     30996000                       # number of ReadSharedReq miss cycles
system.l2cache.ReadSharedReq_miss_latency::total    294877000                       # number of ReadSharedReq miss cycles
system.l2cache.ReadSharedReq_accesses::.cpu.inst      3002717                       # number of ReadSharedReq accesses(hits+misses)
system.l2cache.ReadSharedReq_accesses::.cpu.data      1308087                       # number of ReadSharedReq accesses(hits+misses)
system.l2cache.ReadSharedReq_accesses::total      4310804                       # number of ReadSharedReq accesses(hits+misses)
system.l2cache.ReadSharedReq_miss_rate::.cpu.inst     0.000901                       # miss rate for ReadSharedReq accesses
system.l2cache.ReadSharedReq_miss_rate::.cpu.data     0.000226                       # miss rate for ReadSharedReq accesses
system.l2cache.ReadSharedReq_miss_rate::total     0.000696                       # miss rate for ReadSharedReq accesses
system.l2cache.ReadSharedReq_avg_miss_latency::.cpu.inst 97589.127219                       # average ReadSharedReq miss latency
system.l2cache.ReadSharedReq_avg_miss_latency::.cpu.data 104716.216216                       # average ReadSharedReq miss latency
system.l2cache.ReadSharedReq_avg_miss_latency::total 98292.333333                       # average ReadSharedReq miss latency
system.l2cache.ReadSharedReq_mshr_misses::.cpu.inst         2704                       # number of ReadSharedReq MSHR misses
system.l2cache.ReadSharedReq_mshr_misses::.cpu.data          296                       # number of ReadSharedReq MSHR misses
system.l2cache.ReadSharedReq_mshr_misses::total         3000                       # number of ReadSharedReq MSHR misses
system.l2cache.ReadSharedReq_mshr_miss_latency::.cpu.inst    209801000                       # number of ReadSharedReq MSHR miss cycles
system.l2cache.ReadSharedReq_mshr_miss_latency::.cpu.data     25076000                       # number of ReadSharedReq MSHR miss cycles
system.l2cache.ReadSharedReq_mshr_miss_latency::total    234877000                       # number of ReadSharedReq MSHR miss cycles
system.l2cache.ReadSharedReq_mshr_miss_rate::.cpu.inst     0.000901                       # mshr miss rate for ReadSharedReq accesses
system.l2cache.ReadSharedReq_mshr_miss_rate::.cpu.data     0.000226                       # mshr miss rate for ReadSharedReq accesses
system.l2cache.ReadSharedReq_mshr_miss_rate::total     0.000696                       # mshr miss rate for ReadSharedReq accesses
system.l2cache.ReadSharedReq_avg_mshr_miss_latency::.cpu.inst 77589.127219                       # average ReadSharedReq mshr miss latency
system.l2cache.ReadSharedReq_avg_mshr_miss_latency::.cpu.data 84716.216216                       # average ReadSharedReq mshr miss latency
system.l2cache.ReadSharedReq_avg_mshr_miss_latency::total 78292.333333                       # average ReadSharedReq mshr miss latency
system.l2cache.power_state.pwrStateResidencyTicks::UNDEFINED 2288176798000                       # Cumulative time (in ticks) in various power states
system.l2cache.replacement_policy.totalBypasses          225                       # Total number of cache bypasses
system.l2cache.replacement_policy.effectiveBypasses            0                       # Bypasses that correctly skipped non-reused blocks
system.l2cache.replacement_policy.ineffectiveBypasses          135                       # Bypasses that incorrectly skipped requested blocks
system.l2cache.replacement_policy.virtualEffectiveBypasses            0                       # Virtual bypasses correctly predicting non-reused blocks
system.l2cache.replacement_policy.virtualIneffectiveBypasses          414                       # Virtual bypasses incorrectly predicting requested blocks
system.l2cache.tags.tagsinuse             8366.737200                       # Cycle average of tags in use
system.l2cache.tags.total_refs                9027817                       # Total number of references to valid blocks.
system.l2cache.tags.sampled_refs                 9444                       # Sample count of references to valid blocks.
system.l2cache.tags.avg_refs               955.931491                       # Average number of references to valid blocks.
system.l2cache.tags.warmup_cycle               447000                       # Cycle when the warmup percentage was hit.
system.l2cache.tags.occ_blocks::.writebacks    76.697894                       # Average occupied blocks per requestor
system.l2cache.tags.occ_blocks::.cpu.inst  2290.007680                       # Average occupied blocks per requestor
system.l2cache.tags.occ_blocks::.cpu.data  6000.031626                       # Average occupied blocks per requestor
system.l2cache.tags.occ_percent::.writebacks     0.004681                       # Average percentage of cache occupancy
system.l2cache.tags.occ_percent::.cpu.inst     0.139771                       # Average percentage of cache occupancy
system.l2cache.tags.occ_percent::.cpu.data     0.366213                       # Average percentage of cache occupancy
system.l2cache.tags.occ_percent::total       0.510665                       # Average percentage of cache occupancy
system.l2cache.tags.occ_task_id_blocks::1024         9444                       # Occupied blocks per task id
system.l2cache.tags.age_task_id_blocks_1024::0           39                       # Occupied blocks per task id
system.l2cache.tags.age_task_id_blocks_1024::1           40                       # Occupied blocks per task id
system.l2cache.tags.age_task_id_blocks_1024::2          488                       # Occupied blocks per task id
system.l2cache.tags.age_task_id_blocks_1024::3          474                       # Occupied blocks per task id
system.l2cache.tags.age_task_id_blocks_1024::4         8403                       # Occupied blocks per task id
system.l2cache.tags.occ_task_id_percent::1024     0.576416                       # Percentage of cache occupancy per task id
system.l2cache.tags.tag_accesses             72234916                       # Number of tag accesses
system.l2cache.tags.data_accesses            72234916                       # Number of data accesses
system.l2cache.tags.power_state.pwrStateResidencyTicks::UNDEFINED 2288176798000                       # Cumulative time (in ticks) in various power states
system.mem_ctrl.avgPriority_.writebacks::samples         1.00                       # Average QoS priority value for accepted requests
system.mem_ctrl.avgPriority_.cpu.inst::samples      2704.00                       # Average QoS priority value for accepted requests
system.mem_ctrl.avgPriority_.cpu.data::samples      6885.00                       # Average QoS priority value for accepted requests
system.mem_ctrl.priorityMinLatency       0.000000018750                       # per QoS priority minimum request to response latency (s)
system.mem_ctrl.priorityMaxLatency       0.000000577500                       # per QoS priority maximum request to response latency (s)
system.mem_ctrl.numReadWriteTurnArounds             0                       # Number of turnarounds from READ to WRITE
system.mem_ctrl.numWriteReadTurnArounds             0                       # Number of turnarounds from WRITE to READ
system.mem_ctrl.numStayReadState               606927                       # Number of times bus staying in READ state
system.mem_ctrl.numStayWriteState                   0                       # Number of times bus staying in WRITE state
system.mem_ctrl.readReqs                         9590                       # Number of read requests accepted
system.mem_ctrl.writeReqs                           1                       # Number of write requests accepted
system.mem_ctrl.readBursts                       9590                       # Number of controller read bursts, including those serviced by the write queue
system.mem_ctrl.writeBursts                         1                       # Number of controller write bursts, including those merged in the write queue
system.mem_ctrl.servicedByWrQ                       1                       # Number of controller read bursts serviced by the write queue
system.mem_ctrl.mergedWrBursts                      0                       # Number of controller write bursts merged with an existing one
system.mem_ctrl.neitherReadNorWriteReqs             0                       # Number of requests that are neither read nor write
system.mem_ctrl.avgRdQLen                        1.00                       # Average read queue length when enqueuing
system.mem_ctrl.avgWrQLen                        0.99                       # Average write queue length when enqueuing
system.mem_ctrl.numRdRetry                          0                       # Number of times read queue was full causing retry
system.mem_ctrl.numWrRetry                          0                       # Number of times write queue was full causing retry
system.mem_ctrl.readPktSize::0                      0                       # Read request sizes (log2)
system.mem_ctrl.readPktSize::1                      0                       # Read request sizes (log2)
system.mem_ctrl.readPktSize::2                      0                       # Read request sizes (log2)
system.mem_ctrl.readPktSize::3                      0                       # Read request sizes (log2)
system.mem_ctrl.readPktSize::4                      0                       # Read request sizes (log2)
system.mem_ctrl.readPktSize::5                      0                       # Read request sizes (log2)
system.mem_ctrl.readPktSize::6                   9590                       # Read request sizes (log2)
system.mem_ctrl.writePktSize::0                     0                       # Write request sizes (log2)
system.mem_ctrl.writePktSize::1                     0                       # Write request sizes (log2)
system.mem_ctrl.writePktSize::2                     0                       # Write request sizes (log2)
system.mem_ctrl.writePktSize::3                     0                       # Write request sizes (log2)
system.mem_ctrl.writePktSize::4                     0                       # Write request sizes (log2)
system.mem_ctrl.writePktSize::5                     0                       # Write request sizes (log2)
system.mem_ctrl.writePktSize::6                     1                       # Write request sizes (log2)
system.mem_ctrl.rdQLenPdf::0                     9589                       # What read queue length does an incoming req see
system.mem_ctrl.rdQLenPdf::1                        0                       # What read queue length does an incoming req see
system.mem_ctrl.rdQLenPdf::2                        0                       # What read queue length does an incoming req see
system.mem_ctrl.rdQLenPdf::3                        0                       # What read queue length does an incoming req see
system.mem_ctrl.rdQLenPdf::4                        0                       # What read queue length does an incoming req see
system.mem_ctrl.rdQLenPdf::5                        0                       # What read queue length does an incoming req see
system.mem_ctrl.rdQLenPdf::6                        0                       # What read queue length does an incoming req see
system.mem_ctrl.rdQLenPdf::7                        0                       # What read queue length does an incoming req see
system.mem_ctrl.rdQLenPdf::8                        0                       # What read queue length does an incoming req see
system.mem_ctrl.rdQLenPdf::9                        0                       # What read queue length does an incoming req see
system.mem_ctrl.rdQLenPdf::10                       0                       # What read queue length does an incoming req see
system.mem_ctrl.rdQLenPdf::11                       0                       # What read queue length does an incoming req see
system.mem_ctrl.rdQLenPdf::12                       0                       # What read queue length does an incoming req see
system.mem_ctrl.rdQLenPdf::13                       0                       # What read queue length does an incoming req see
system.mem_ctrl.rdQLenPdf::14                       0                       # What read queue length does an incoming req see
system.mem_ctrl.rdQLenPdf::15                       0                       # What read queue length does an incoming req see
system.mem_ctrl.rdQLenPdf::16                       0                       # What read queue length does an incoming req see
system.mem_ctrl.rdQLenPdf::17                       0                       # What read queue length does an incoming req see
system.mem_ctrl.rdQLenPdf::18                       0                       # What read queue length does an incoming req see
system.mem_ctrl.rdQLenPdf::19                       0                       # What read queue length does an incoming req see
system.mem_ctrl.rdQLenPdf::20                       0                       # What read queue length does an incoming req see
system.mem_ctrl.rdQLenPdf::21                       0                       # What read queue length does an incoming req see
system.mem_ctrl.rdQLenPdf::22                       0                       # What read queue length does an incoming req see
system.mem_ctrl.rdQLenPdf::23                       0                       # What read queue length does an incoming req see
system.mem_ctrl.rdQLenPdf::24                       0                       # What read queue length does an incoming req see
system.mem_ctrl.rdQLenPdf::25                       0                       # What read queue length does an incoming req see
system.mem_ctrl.rdQLenPdf::26                       0                       # What read queue length does an incoming req see
system.mem_ctrl.rdQLenPdf::27                       0                       # What read queue length does an incoming req see
system.mem_ctrl.rdQLenPdf::28                       0                       # What read queue length does an incoming req see
system.mem_ctrl.rdQLenPdf::29                       0                       # What read queue length does an incoming req see
system.mem_ctrl.rdQLenPdf::30                       0                       # What read queue length does an incoming req see
system.mem_ctrl.rdQLenPdf::31                       0                       # What read queue length does an incoming req see
system.mem_ctrl.wrQLenPdf::0                        1                       # What write queue length does an incoming req see
system.mem_ctrl.wrQLenPdf::1                        0                       # What write queue length does an incoming req see
system.mem_ctrl.wrQLenPdf::2                        0                       # What write queue length does an incoming req see
system.mem_ctrl.wrQLenPdf::3                        0                       # What write queue length does an incoming req see
system.mem_ctrl.wrQLenPdf::4                        0                       # What write queue length does an incoming req see
system.mem_ctrl.wrQLenPdf::5                        0                       # What write queue length does an incoming req see
system.mem_ctrl.wrQLenPdf::6                        0                       # What write queue length does an incoming req see
system.mem_ctrl.wrQLenPdf::7                        0                       # What write queue length does an incoming req see
system.mem_ctrl.wrQLenPdf::8                        0                       # What write queue length does an incoming req see
system.mem_ctrl.wrQLenPdf::9                        0                       # What write queue length does an incoming req see
system.mem_ctrl.wrQLenPdf::10                       0                       # What write queue length does an incoming req see
system.mem_ctrl.wrQLenPdf::11                       0                       # What write queue length does an incoming req see
system.mem_ctrl.wrQLenPdf::12                       0                       # What write queue length does an incoming req see
system.mem_ctrl.wrQLenPdf::13                       0                       # What write queue length does an incoming req see
system.mem_ctrl.wrQLenPdf::14                       0                       # What write queue length does an incoming req see
system.mem_ctrl.wrQLenPdf::15                       0                       # What write queue length does an incoming req see
system.mem_ctrl.wrQLenPdf::16                       0                       # What write queue length does an incoming req see
system.mem_ctrl.wrQLenPdf::17                       0                       # What write queue length does an incoming req see
system.mem_ctrl.wrQLenPdf::18                       0                       # What write queue length does an incoming req see
system.mem_ctrl.wrQLenPdf::19                       0                       # What write queue length does an incoming req see
system.mem_ctrl.wrQLenPdf::20                       0                       # What write queue length does an incoming req see
system.mem_ctrl.wrQLenPdf::21                       0                       # What write queue length does an incoming req see
system.mem_ctrl.wrQLenPdf::22                       0                       # What write queue length does an incoming req see
system.mem_ctrl.wrQLenPdf::23                       0                       # What write queue length does an incoming req see
system.mem_ctrl.wrQLenPdf::24                       0                       # What write queue length does an incoming req see
system.mem_ctrl.wrQLenPdf::25                       0                       # What write queue length does an incoming req see
system.mem_ctrl.wrQLenPdf::26                       0                       # What write queue length does an incoming req see
system.mem_ctrl.wrQLenPdf::27                       0                       # What write queue length does an incoming req see
system.mem_ctrl.wrQLenPdf::28                       0                       # What write queue length does an incoming req see
system.mem_ctrl.wrQLenPdf::29                       0                       # What write queue length does an incoming req see
system.mem_ctrl.wrQLenPdf::30                       0                       # What write queue length does an incoming req see
system.mem_ctrl.wrQLenPdf::31                       0                       # What write queue length does an incoming req see
system.mem_ctrl.wrQLenPdf::32                       0                       # What write queue length does an incoming req see
system.mem_ctrl.wrQLenPdf::33                       0                       # What write queue length does an incoming req see
system.mem_ctrl.wrQLenPdf::34                       0                       # What write queue length does an incoming req see
system.mem_ctrl.wrQLenPdf::35                       0                       # What write queue length does an incoming req see
system.mem_ctrl.wrQLenPdf::36                       0                       # What write queue length does an incoming req see
system.mem_ctrl.wrQLenPdf::37                       0                       # What write queue length does an incoming req see
system.mem_ctrl.wrQLenPdf::38                       0                       # What write queue length does an incoming req see
system.mem_ctrl.wrQLenPdf::39                       0                       # What write queue length does an incoming req see
system.mem_ctrl.wrQLenPdf::40                       0                       # What write queue length does an incoming req see
system.mem_ctrl.wrQLenPdf::41                       0                       # What write queue length does an incoming req see
system.mem_ctrl.wrQLenPdf::42                       0                       # What write queue length does an incoming req see
system.mem_ctrl.wrQLenPdf::43                       0                       # What write queue length does an incoming req see
system.mem_ctrl.wrQLenPdf::44                       0                       # What write queue length does an incoming req see
system.mem_ctrl.wrQLenPdf::45                       0                       # What write queue length does an incoming req see
system.mem_ctrl.wrQLenPdf::46                       0                       # What write queue length does an incoming req see
system.mem_ctrl.wrQLenPdf::47                       0                       # What write queue length does an incoming req see
system.mem_ctrl.wrQLenPdf::48                       0                       # What write queue length does an incoming req see
system.mem_ctrl.wrQLenPdf::49                       0                       # What write queue length does an incoming req see
system.mem_ctrl.wrQLenPdf::50                       0                       # What write queue length does an incoming req see
system.mem_ctrl.wrQLenPdf::51                       0                       # What write queue length does an incoming req see
system.mem_ctrl.wrQLenPdf::52                       0                       # What write queue length does an incoming req see
system.mem_ctrl.wrQLenPdf::53                       0                       # What write queue length does an incoming req see
system.mem_ctrl.wrQLenPdf::54                       0                       # What write queue length does an incoming req see
system.mem_ctrl.wrQLenPdf::55                       0                       # What write queue length does an incoming req see
system.mem_ctrl.wrQLenPdf::56                       0                       # What write queue length does an incoming req see
system.mem_ctrl.wrQLenPdf::57                       0                       # What write queue length does an incoming req see
system.mem_ctrl.wrQLenPdf::58                       0                       # What write queue length does an incoming req see
system.mem_ctrl.wrQLenPdf::59                       0                       # What write queue length does an incoming req see
system.mem_ctrl.wrQLenPdf::60                       0                       # What write queue length does an incoming req see
system.mem_ctrl.wrQLenPdf::61                       0                       # What write queue length does an incoming req see
system.mem_ctrl.wrQLenPdf::62                       0                       # What write queue length does an incoming req see
system.mem_ctrl.wrQLenPdf::63                       0                       # What write queue length does an incoming req see
system.mem_ctrl.bytesReadWrQ                       64                       # Total number of bytes read from write queue
system.mem_ctrl.bytesReadSys                   613760                       # Total read bytes from the system interface side
system.mem_ctrl.bytesWrittenSys                    64                       # Total written bytes from the system interface side
system.mem_ctrl.avgRdBWSys                       0.27                       # Average system read bandwidth in MiByte/s
system.mem_ctrl.avgWrBWSys                       0.00                       # Average system write bandwidth in MiByte/s
system.mem_ctrl.totGap                   2288176480000                       # Total gap between requests
system.mem_ctrl.avgGap                   238575381.09                       # Average gap between requests
system.mem_ctrl.requestorReadBytes::.cpu.inst       173056                       # Per-requestor bytes read from memory
system.mem_ctrl.requestorReadBytes::.cpu.data       440640                       # Per-requestor bytes read from memory
system.mem_ctrl.requestorReadRate::.cpu.inst 75630.519525965414                       # Per-requestor bytes read from memory rate (Bytes/sec)
system.mem_ctrl.requestorReadRate::.cpu.data 192572.532150988118                       # Per-requestor bytes read from memory rate (Bytes/sec)
system.mem_ctrl.requestorReadAccesses::.cpu.inst         2704                       # Per-requestor read serviced memory accesses
system.mem_ctrl.requestorReadAccesses::.cpu.data         6886                       # Per-requestor read serviced memory accesses
system.mem_ctrl.requestorWriteAccesses::.writebacks            1                       # Per-requestor write serviced memory accesses
system.mem_ctrl.requestorReadTotalLat::.cpu.inst     71056500                       # Per-requestor read total memory access latency
system.mem_ctrl.requestorReadTotalLat::.cpu.data    168565500                       # Per-requestor read total memory access latency
system.mem_ctrl.requestorReadAvgLat::.cpu.inst     26278.29                       # Per-requestor read average memory access latency
system.mem_ctrl.requestorReadAvgLat::.cpu.data     24479.45                       # Per-requestor read average memory access latency
system.mem_ctrl.requestorWriteAvgLat::.writebacks         0.00                       # Per-requestor write average memory access latency
system.mem_ctrl.dram.bytes_read::.cpu.inst       173056                       # Number of bytes read from this memory
system.mem_ctrl.dram.bytes_read::.cpu.data       440704                       # Number of bytes read from this memory
system.mem_ctrl.dram.bytes_read::total         613760                       # Number of bytes read from this memory
system.mem_ctrl.dram.bytes_inst_read::.cpu.inst       173056                       # Number of instructions bytes read from this memory
system.mem_ctrl.dram.bytes_inst_read::total       173056                       # Number of instructions bytes read from this memory
system.mem_ctrl.dram.bytes_written::.writebacks           64                       # Number of bytes written to this memory
system.mem_ctrl.dram.bytes_written::total           64                       # Number of bytes written to this memory
system.mem_ctrl.dram.num_reads::.cpu.inst         2704                       # Number of read requests responded to by this memory
system.mem_ctrl.dram.num_reads::.cpu.data         6886                       # Number of read requests responded to by this memory
system.mem_ctrl.dram.num_reads::total            9590                       # Number of read requests responded to by this memory
system.mem_ctrl.dram.num_writes::.writebacks            1                       # Number of write requests responded to by this memory
system.mem_ctrl.dram.num_writes::total              1                       # Number of write requests responded to by this memory
system.mem_ctrl.dram.bw_read::.cpu.inst         75631                       # Total read bandwidth from this memory (bytes/s)
system.mem_ctrl.dram.bw_read::.cpu.data        192601                       # Total read bandwidth from this memory (bytes/s)
system.mem_ctrl.dram.bw_read::total            268231                       # Total read bandwidth from this memory (bytes/s)
system.mem_ctrl.dram.bw_inst_read::.cpu.inst        75631                       # Instruction read bandwidth from this memory (bytes/s)
system.mem_ctrl.dram.bw_inst_read::total        75631                       # Instruction read bandwidth from this memory (bytes/s)
system.mem_ctrl.dram.bw_write::.writebacks           28                       # Write bandwidth from this memory (bytes/s)
system.mem_ctrl.dram.bw_write::total               28                       # Write bandwidth from this memory (bytes/s)
system.mem_ctrl.dram.bw_total::.writebacks           28                       # Total bandwidth to/from this memory (bytes/s)
system.mem_ctrl.dram.bw_total::.cpu.inst        75631                       # Total bandwidth to/from this memory (bytes/s)
system.mem_ctrl.dram.bw_total::.cpu.data       192601                       # Total bandwidth to/from this memory (bytes/s)
system.mem_ctrl.dram.bw_total::total           268259                       # Total bandwidth to/from this memory (bytes/s)
system.mem_ctrl.dram.readBursts                  9589                       # Number of DRAM read bursts
system.mem_ctrl.dram.writeBursts                    0                       # Number of DRAM write bursts
system.mem_ctrl.dram.perBankRdBursts::0           663                       # Per bank write bursts
system.mem_ctrl.dram.perBankRdBursts::1           704                       # Per bank write bursts
system.mem_ctrl.dram.perBankRdBursts::2           688                       # Per bank write bursts
system.mem_ctrl.dram.perBankRdBursts::3           732                       # Per bank write bursts
system.mem_ctrl.dram.perBankRdBursts::4           551                       # Per bank write bursts
system.mem_ctrl.dram.perBankRdBursts::5           492                       # Per bank write bursts
system.mem_ctrl.dram.perBankRdBursts::6           403                       # Per bank write bursts
system.mem_ctrl.dram.perBankRdBursts::7           582                       # Per bank write bursts
system.mem_ctrl.dram.perBankRdBursts::8           643                       # Per bank write bursts
system.mem_ctrl.dram.perBankRdBursts::9           583                       # Per bank write bursts
system.mem_ctrl.dram.perBankRdBursts::10          581                       # Per bank write bursts
system.mem_ctrl.dram.perBankRdBursts::11          705                       # Per bank write bursts
system.mem_ctrl.dram.perBankRdBursts::12          594                       # Per bank write bursts
system.mem_ctrl.dram.perBankRdBursts::13          552                       # Per bank write bursts
system.mem_ctrl.dram.perBankRdBursts::14          543                       # Per bank write bursts
system.mem_ctrl.dram.perBankRdBursts::15          573                       # Per bank write bursts
system.mem_ctrl.dram.perBankWrBursts::0             0                       # Per bank write bursts
system.mem_ctrl.dram.perBankWrBursts::1             0                       # Per bank write bursts
system.mem_ctrl.dram.perBankWrBursts::2             0                       # Per bank write bursts
system.mem_ctrl.dram.perBankWrBursts::3             0                       # Per bank write bursts
system.mem_ctrl.dram.perBankWrBursts::4             0                       # Per bank write bursts
system.mem_ctrl.dram.perBankWrBursts::5             0                       # Per bank write bursts
system.mem_ctrl.dram.perBankWrBursts::6             0                       # Per bank write bursts
system.mem_ctrl.dram.perBankWrBursts::7             0                       # Per bank write bursts
system.mem_ctrl.dram.perBankWrBursts::8             0                       # Per bank write bursts
system.mem_ctrl.dram.perBankWrBursts::9             0                       # Per bank write bursts
system.mem_ctrl.dram.perBankWrBursts::10            0                       # Per bank write bursts
system.mem_ctrl.dram.perBankWrBursts::11            0                       # Per bank write bursts
system.mem_ctrl.dram.perBankWrBursts::12            0                       # Per bank write bursts
system.mem_ctrl.dram.perBankWrBursts::13            0                       # Per bank write bursts
system.mem_ctrl.dram.perBankWrBursts::14            0                       # Per bank write bursts
system.mem_ctrl.dram.perBankWrBursts::15            0                       # Per bank write bursts
system.mem_ctrl.dram.totQLat                 59828250                       # Total ticks spent queuing
system.mem_ctrl.dram.totBusLat               47945000                       # Total ticks spent in databus transfers
system.mem_ctrl.dram.totMemAccLat           239622000                       # Total ticks spent from burst creation until serviced by the DRAM
system.mem_ctrl.dram.avgQLat                  6239.26                       # Average queueing delay per DRAM burst
system.mem_ctrl.dram.avgBusLat                5000.00                       # Average bus latency per DRAM burst
system.mem_ctrl.dram.avgMemAccLat            24989.26                       # Average memory access latency per DRAM burst
system.mem_ctrl.dram.readRowHits                 8088                       # Number of row buffer hits during reads
system.mem_ctrl.dram.writeRowHits                   0                       # Number of row buffer hits during writes
system.mem_ctrl.dram.readRowHitRate             84.35                       # Row buffer hit rate for reads
system.mem_ctrl.dram.writeRowHitRate              nan                       # Row buffer hit rate for writes
system.mem_ctrl.dram.bytesPerActivate::samples         1500                       # Bytes accessed per row activation
system.mem_ctrl.dram.bytesPerActivate::mean   409.088000                       # Bytes accessed per row activation
system.mem_ctrl.dram.bytesPerActivate::gmean   263.769736                       # Bytes accessed per row activation
system.mem_ctrl.dram.bytesPerActivate::stdev   350.103707                       # Bytes accessed per row activation
system.mem_ctrl.dram.bytesPerActivate::0-127          352     23.47%     23.47% # Bytes accessed per row activation
system.mem_ctrl.dram.bytesPerActivate::128-255          255     17.00%     40.47% # Bytes accessed per row activation
system.mem_ctrl.dram.bytesPerActivate::256-383          313     20.87%     61.33% # Bytes accessed per row activation
system.mem_ctrl.dram.bytesPerActivate::384-511          123      8.20%     69.53% # Bytes accessed per row activation
system.mem_ctrl.dram.bytesPerActivate::512-639           51      3.40%     72.93% # Bytes accessed per row activation
system.mem_ctrl.dram.bytesPerActivate::640-767           75      5.00%     77.93% # Bytes accessed per row activation
system.mem_ctrl.dram.bytesPerActivate::768-895           35      2.33%     80.27% # Bytes accessed per row activation
system.mem_ctrl.dram.bytesPerActivate::896-1023           17      1.13%     81.40% # Bytes accessed per row activation
system.mem_ctrl.dram.bytesPerActivate::1024-1151          279     18.60%    100.00% # Bytes accessed per row activation
system.mem_ctrl.dram.bytesPerActivate::total         1500                       # Bytes accessed per row activation
system.mem_ctrl.dram.bytesRead                 613696                       # Total number of bytes read from DRAM
system.mem_ctrl.dram.bytesWritten                   0                       # Total number of bytes written to DRAM
system.mem_ctrl.dram.avgRdBW                 0.268203                       # Average DRAM read bandwidth in MiBytes/s
system.mem_ctrl.dram.avgWrBW                        0                       # Average DRAM write bandwidth in MiBytes/s
system.mem_ctrl.dram.peakBW                  12800.00                       # Theoretical peak bandwidth in MiByte/s
system.mem_ctrl.dram.busUtil                     0.00                       # Data bus utilization in percentage
system.mem_ctrl.dram.busUtilRead                 0.00                       # Data bus utilization in percentage for reads
system.mem_ctrl.dram.busUtilWrite                0.00                       # Data bus utilization in percentage for writes
system.mem_ctrl.dram.pageHitRate                84.35                       # Row buffer hit rate, read and write combined
system.mem_ctrl.dram.power_state.pwrStateResidencyTicks::UNDEFINED 2288176798000                       # Cumulative time (in ticks) in various power states
system.mem_ctrl.dram.rank0.actEnergy          5183640                       # Energy for activate commands per rank (pJ)
system.mem_ctrl.dram.rank0.preEnergy          2751375                       # Energy for precharge commands per rank (pJ)
system.mem_ctrl.dram.rank0.readEnergy        34379100                       # Energy for read commands per rank (pJ)
system.mem_ctrl.dram.rank0.writeEnergy              0                       # Energy for write commands per rank (pJ)
system.mem_ctrl.dram.rank0.refreshEnergy 180626715360.000031                       # Energy for refresh commands per rank (pJ)
system.mem_ctrl.dram.rank0.actBackEnergy  33715507410                       # Energy for active background per rank (pJ)
system.mem_ctrl.dram.rank0.preBackEnergy 850267884480                       # Energy for precharge background per rank (pJ)
system.mem_ctrl.dram.rank0.actPowerDownEnergy            0                       # Energy for active power-down per rank (pJ)
system.mem_ctrl.dram.rank0.prePowerDownEnergy            0                       # Energy for precharge power-down per rank (pJ)
system.mem_ctrl.dram.rank0.selfRefreshEnergy            0                       # Energy for self refresh per rank (pJ)
system.mem_ctrl.dram.rank0.totalEnergy   1064652421365                       # Total energy per rank (pJ)
system.mem_ctrl.dram.rank0.averagePower    465.284161                       # Core power per rank (mW)
system.mem_ctrl.dram.rank0.totalIdleTime            0                       # Total Idle time Per DRAM Rank
system.mem_ctrl.dram.rank0.pwrStateTime::IDLE 2210192981500                       # Time in different power states
system.mem_ctrl.dram.rank0.pwrStateTime::REF  76407240000                       # Time in different power states
system.mem_ctrl.dram.rank0.pwrStateTime::SREF            0                       # Time in different power states
system.mem_ctrl.dram.rank0.pwrStateTime::PRE_PDN            0                       # Time in different power states
system.mem_ctrl.dram.rank0.pwrStateTime::ACT   1576576500                       # Time in different power states
system.mem_ctrl.dram.rank0.pwrStateTime::ACT_PDN            0                       # Time in different power states
system.mem_ctrl.dram.rank1.actEnergy          5533500                       # Energy for activate commands per rank (pJ)
system.mem_ctrl.dram.rank1.preEnergy          2941125                       # Energy for precharge commands per rank (pJ)
system.mem_ctrl.dram.rank1.readEnergy        34086360                       # Energy for read commands per rank (pJ)
system.mem_ctrl.dram.rank1.writeEnergy              0                       # Energy for write commands per rank (pJ)
system.mem_ctrl.dram.rank1.refreshEnergy 180626715360.000031                       # Energy for refresh commands per rank (pJ)
system.mem_ctrl.dram.rank1.actBackEnergy  33642720690                       # Energy for active background per rank (pJ)
system.mem_ctrl.dram.rank1.preBackEnergy 850329178560                       # Energy for precharge background per rank (pJ)
system.mem_ctrl.dram.rank1.actPowerDownEnergy            0                       # Energy for active power-down per rank (pJ)
system.mem_ctrl.dram.rank1.prePowerDownEnergy            0                       # Energy for precharge power-down per rank (pJ)
system.mem_ctrl.dram.rank1.selfRefreshEnergy            0                       # Energy for self refresh per rank (pJ)
system.mem_ctrl.dram.rank1.totalEnergy   1064641175595                       # Total energy per rank (pJ)
system.mem_ctrl.dram.rank1.averagePower    465.279246                       # Core power per rank (mW)
system.mem_ctrl.dram.rank1.totalIdleTime            0                       # Total Idle time Per DRAM Rank
system.mem_ctrl.dram.rank1.pwrStateTime::IDLE 2210353414250                       # Time in different power states
system.mem_ctrl.dram.rank1.pwrStateTime::REF  76407240000                       # Time in different power states
system.mem_ctrl.dram.rank1.pwrStateTime::SREF            0                       # Time in different power states
system.mem_ctrl.dram.rank1.pwrStateTime::PRE_PDN            0                       # Time in different power states
system.mem_ctrl.dram.rank1.pwrStateTime::ACT   1416143750                       # Time in different power states
system.mem_ctrl.dram.rank1.pwrStateTime::ACT_PDN            0                       # Time in different power states
system.mem_ctrl.power_state.pwrStateResidencyTicks::UNDEFINED 2288176798000                       # Cumulative time (in ticks) in various power states
system.membus.trans_dist::ReadResp               3000                       # Transaction distribution
system.membus.trans_dist::WritebackDirty            1                       # Transaction distribution
system.membus.trans_dist::CleanEvict              142                       # Transaction distribution
system.membus.trans_dist::ReadExReq              6590                       # Transaction distribution
system.membus.trans_dist::ReadExResp             6590                       # Transaction distribution
system.membus.trans_dist::ReadSharedReq          3000                       # Transaction distribution
system.membus.pkt_count_system.l2cache.mem_side_port::system.mem_ctrl.port        19323                       # Packet count per connected requestor and responder (bytes)
system.membus.pkt_count_system.l2cache.mem_side_port::total        19323                       # Packet count per connected requestor and responder (bytes)
system.membus.pkt_count::total                  19323                       # Packet count per connected requestor and responder (bytes)
system.membus.pkt_size_system.l2cache.mem_side_port::system.mem_ctrl.port       613824                       # Cumulative packet size per connected requestor and responder (bytes)
system.membus.pkt_size_system.l2cache.mem_side_port::total       613824                       # Cumulative packet size per connected requestor and responder (bytes)
system.membus.pkt_size::total                  613824                       # Cumulative packet size per connected requestor and responder (bytes)
system.membus.snoops                                0                       # Total snoops (count)
system.membus.snoopTraffic                          0                       # Total snoop traffic (bytes)
system.membus.snoop_fanout::samples              9590                       # Request fanout histogram
system.membus.snoop_fanout::mean                    0                       # Request fanout histogram
system.membus.snoop_fanout::stdev                   0                       # Request fanout histogram
system.membus.snoop_fanout::underflows              0      0.00%      0.00% # Request fanout histogram
system.membus.snoop_fanout::0                    9590    100.00%    100.00% # Request fanout histogram
system.membus.snoop_fanout::1                       0      0.00%    100.00% # Request fanout histogram
system.membus.snoop_fanout::overflows               0      0.00%    100.00% # Request fanout histogram
system.membus.snoop_fanout::min_value               0                       # Request fanout histogram
system.membus.snoop_fanout::max_value               0                       # Request fanout histogram
system.membus.snoop_fanout::total                9590                       # Request fanout histogram
system.membus.power_state.pwrStateResidencyTicks::UNDEFINED 2288176798000                       # Cumulative time (in ticks) in various power states
system.membus.reqLayer2.occupancy             9737000                       # Layer occupancy (ticks)
system.membus.reqLayer2.utilization               0.0                       # Layer utilization (%)
system.membus.respLayer0.occupancy           50739000                       # Layer occupancy (ticks)
system.membus.respLayer0.utilization              0.0                       # Layer utilization (%)

---------- End Simulation Statistics   ----------
