
---------- Begin Simulation Statistics ----------
final_tick                               2376389333000                       # Number of ticks from beginning of simulation (restored from checkpoints and never reset)
host_inst_rate                                 448691                       # Simulator instruction rate (inst/s)
host_mem_usage                                 674440                       # Number of bytes of host memory used
host_op_rate                                   657378                       # Simulator op (including micro ops) rate (op/s)
host_seconds                                  1172.70                       # Real time elapsed on the host
host_tick_rate                             2026434031                       # Simulator tick rate (ticks/s)
sim_freq                                 1000000000000                       # Frequency of simulated ticks
sim_insts                                   526177548                       # Number of instructions simulated
sim_ops                                     770903492                       # Number of ops (including micro ops) simulated
sim_seconds                                  2.376389                       # Number of seconds simulated
sim_ticks                                2376389333000                       # Number of ticks simulated
system.cpu.Branches                           3021881                       # Number of branches fetched
system.cpu.committedInsts                   526177548                       # Number of instructions committed
system.cpu.committedOps                     770903492                       # Number of ops (including micro ops) committed
system.cpu.idle_fraction                     0.000000                       # Percentage of idle cycles
system.cpu.not_idle_fraction                 1.000000                       # Percentage of non-idle cycles
system.cpu.numCycles                       2376389333                       # number of cpu cycles simulated
system.cpu.numWorkItemsCompleted                    0                       # number of work items this cpu completed
system.cpu.numWorkItemsStarted                      0                       # number of work items this cpu started
system.cpu.num_busy_cycles               2376389332.999000                       # Number of busy cycles
system.cpu.num_cc_register_reads              8346313                       # number of times the CC registers were read
system.cpu.num_cc_register_writes            12896239                       # number of times the CC registers were written
system.cpu.num_conditional_control_insts      1622627                       # number of instructions that are conditional controls
system.cpu.num_fp_alu_accesses              724171277                       # Number of float alu accesses
system.cpu.num_fp_insts                     724171277                       # number of float instructions
system.cpu.num_fp_register_reads           1031628202                       # number of times the floating registers were read
system.cpu.num_fp_register_writes           638978695                       # number of times the floating registers were written
system.cpu.num_func_calls                     1356000                       # number of times a function call or return occured
system.cpu.num_idle_cycles                   0.001000                       # Number of idle cycles
system.cpu.num_int_alu_accesses             281643665                       # Number of integer alu accesses
system.cpu.num_int_insts                    281643665                       # number of integer instructions
system.cpu.num_int_register_reads           783869703                       # number of times the integer registers were read
system.cpu.num_int_register_writes           35235359                       # number of times the integer registers were written
system.cpu.num_load_insts                   151055025                       # Number of load instructions
system.cpu.num_mem_refs                     244655430                       # number of memory refs
system.cpu.num_store_insts                   93600405                       # Number of store instructions
system.cpu.num_vec_alu_accesses                     0                       # Number of vector alu accesses
system.cpu.num_vec_insts                            0                       # number of vector instructions
system.cpu.num_vec_register_reads                   0                       # number of times the vector registers were read
system.cpu.num_vec_register_writes                  0                       # number of times the vector registers were written
system.cpu.op_class::No_OpClass                122350      0.02%      0.02% # Class of executed instruction
system.cpu.op_class::IntAlu                 156847661     20.35%     20.36% # Class of executed instruction
system.cpu.op_class::IntMult                    38307      0.00%     20.37% # Class of executed instruction
system.cpu.op_class::IntDiv                       588      0.00%     20.37% # Class of executed instruction
system.cpu.op_class::FloatAdd               129162355     16.75%     37.12% # Class of executed instruction
system.cpu.op_class::FloatCmp                       0      0.00%     37.12% # Class of executed instruction
system.cpu.op_class::FloatCvt                       0      0.00%     37.12% # Class of executed instruction
system.cpu.op_class::FloatMult                      0      0.00%     37.12% # Class of executed instruction
system.cpu.op_class::FloatMultAcc                   0      0.00%     37.12% # Class of executed instruction
system.cpu.op_class::FloatDiv                       0      0.00%     37.12% # Class of executed instruction
system.cpu.op_class::FloatMisc                      0      0.00%     37.12% # Class of executed instruction
system.cpu.op_class::FloatSqrt                      0      0.00%     37.12% # Class of executed instruction
system.cpu.op_class::SimdAdd                      104      0.00%     37.12% # Class of executed instruction
system.cpu.op_class::SimdAddAcc                     0      0.00%     37.12% # Class of executed instruction
system.cpu.op_class::SimdAlu                 13572619      1.76%     38.88% # Class of executed instruction
system.cpu.op_class::SimdCmp                       18      0.00%     38.88% # Class of executed instruction
system.cpu.op_class::SimdCvt                     1518      0.00%     38.88% # Class of executed instruction
system.cpu.op_class::SimdMisc                   18290      0.00%     38.88% # Class of executed instruction
system.cpu.op_class::SimdMult                       0      0.00%     38.88% # Class of executed instruction
system.cpu.op_class::SimdMultAcc                    0      0.00%     38.88% # Class of executed instruction
system.cpu.op_class::SimdShift                    156      0.00%     38.88% # Class of executed instruction
system.cpu.op_class::SimdShiftAcc                   0      0.00%     38.88% # Class of executed instruction
system.cpu.op_class::SimdDiv                        0      0.00%     38.88% # Class of executed instruction
system.cpu.op_class::SimdSqrt                       0      0.00%     38.88% # Class of executed instruction
system.cpu.op_class::SimdFloatAdd           100487583     13.04%     51.92% # Class of executed instruction
system.cpu.op_class::SimdFloatAlu                   0      0.00%     51.92% # Class of executed instruction
system.cpu.op_class::SimdFloatCmp                   0      0.00%     51.92% # Class of executed instruction
system.cpu.op_class::SimdFloatCvt               11622      0.00%     51.92% # Class of executed instruction
system.cpu.op_class::SimdFloatDiv             1355195      0.18%     52.10% # Class of executed instruction
system.cpu.op_class::SimdFloatMisc                  0      0.00%     52.10% # Class of executed instruction
system.cpu.op_class::SimdFloatMult          124629795     16.17%     68.26% # Class of executed instruction
system.cpu.op_class::SimdFloatMultAcc               0      0.00%     68.26% # Class of executed instruction
system.cpu.op_class::SimdFloatSqrt                 10      0.00%     68.26% # Class of executed instruction
system.cpu.op_class::SimdReduceAdd                  0      0.00%     68.26% # Class of executed instruction
system.cpu.op_class::SimdReduceAlu                  0      0.00%     68.26% # Class of executed instruction
system.cpu.op_class::SimdReduceCmp                  0      0.00%     68.26% # Class of executed instruction
system.cpu.op_class::SimdFloatReduceAdd             0      0.00%     68.26% # Class of executed instruction
system.cpu.op_class::SimdFloatReduceCmp             0      0.00%     68.26% # Class of executed instruction
system.cpu.op_class::SimdAes                        0      0.00%     68.26% # Class of executed instruction
system.cpu.op_class::SimdAesMix                     0      0.00%     68.26% # Class of executed instruction
system.cpu.op_class::SimdSha1Hash                   0      0.00%     68.26% # Class of executed instruction
system.cpu.op_class::SimdSha1Hash2                  0      0.00%     68.26% # Class of executed instruction
system.cpu.op_class::SimdSha256Hash                 0      0.00%     68.26% # Class of executed instruction
system.cpu.op_class::SimdSha256Hash2                0      0.00%     68.26% # Class of executed instruction
system.cpu.op_class::SimdShaSigma2                  0      0.00%     68.26% # Class of executed instruction
system.cpu.op_class::SimdShaSigma3                  0      0.00%     68.26% # Class of executed instruction
system.cpu.op_class::SimdPredAlu                    0      0.00%     68.26% # Class of executed instruction
system.cpu.op_class::MemRead                  1225878      0.16%     68.42% # Class of executed instruction
system.cpu.op_class::MemWrite                 8411186      1.09%     69.51% # Class of executed instruction
system.cpu.op_class::FloatMemRead           149829147     19.44%     88.95% # Class of executed instruction
system.cpu.op_class::FloatMemWrite           85189219     11.05%    100.00% # Class of executed instruction
system.cpu.op_class::IprAccess                      0      0.00%    100.00% # Class of executed instruction
system.cpu.op_class::InstPrefetch                   0      0.00%    100.00% # Class of executed instruction
system.cpu.op_class::total                  770903601                       # Class of executed instruction
system.cpu.workload.numSyscalls                    85                       # Number of system calls
system.l2bus.snoop_filter.hit_multi_requests            0                       # Number of requests hitting in the snoop filter with multiple (>1) holders of the requested data.
system.l2bus.snoop_filter.hit_multi_snoops            0                       # Number of snoops hitting in the snoop filter with multiple (>1) holders of the requested data.
system.l2bus.snoop_filter.hit_single_requests      4513447                       # Number of requests hitting in the snoop filter with a single holder of the requested data.
system.l2bus.snoop_filter.hit_single_snoops       436097                       # Number of snoops hitting in the snoop filter with a single holder of the requested data.
system.l2bus.snoop_filter.tot_requests        9028174                       # Total number of requests made to the snoop filter.
system.l2bus.snoop_filter.tot_snoops           436097                       # Total number of snoops made to the snoop filter.
system.membus.snoop_filter.hit_multi_requests            0                       # Number of requests hitting in the snoop filter with multiple (>1) holders of the requested data.
system.membus.snoop_filter.hit_multi_snoops            0                       # Number of snoops hitting in the snoop filter with multiple (>1) holders of the requested data.
system.membus.snoop_filter.hit_single_requests      1105648                       # Number of requests hitting in the snoop filter with a single holder of the requested data.
system.membus.snoop_filter.hit_single_snoops            0                       # Number of snoops hitting in the snoop filter with a single holder of the requested data.
system.membus.snoop_filter.tot_requests       2213721                       # Total number of requests made to the snoop filter.
system.membus.snoop_filter.tot_snoops               0                       # Total number of snoops made to the snoop filter.
system.clk_domain.clock                          1000                       # Clock period in ticks
system.clk_domain.voltage_domain.voltage            1                       # Voltage in Volts
system.cpu.dcache.demand_hits::.cpu.data    243143456                       # number of demand (read+write) hits
system.cpu.dcache.demand_hits::total        243143456                       # number of demand (read+write) hits
system.cpu.dcache.overall_hits::.cpu.data    243143456                       # number of overall hits
system.cpu.dcache.overall_hits::total       243143456                       # number of overall hits
system.cpu.dcache.demand_misses::.cpu.data      1512015                       # number of demand (read+write) misses
system.cpu.dcache.demand_misses::total        1512015                       # number of demand (read+write) misses
system.cpu.dcache.overall_misses::.cpu.data      1512015                       # number of overall misses
system.cpu.dcache.overall_misses::total       1512015                       # number of overall misses
system.cpu.dcache.demand_miss_latency::.cpu.data 123854018000                       # number of demand (read+write) miss cycles
system.cpu.dcache.demand_miss_latency::total 123854018000                       # number of demand (read+write) miss cycles
system.cpu.dcache.overall_miss_latency::.cpu.data 123854018000                       # number of overall miss cycles
system.cpu.dcache.overall_miss_latency::total 123854018000                       # number of overall miss cycles
system.cpu.dcache.demand_accesses::.cpu.data    244655471                       # number of demand (read+write) accesses
system.cpu.dcache.demand_accesses::total    244655471                       # number of demand (read+write) accesses
system.cpu.dcache.overall_accesses::.cpu.data    244655471                       # number of overall (read+write) accesses
system.cpu.dcache.overall_accesses::total    244655471                       # number of overall (read+write) accesses
system.cpu.dcache.demand_miss_rate::.cpu.data     0.006180                       # miss rate for demand accesses
system.cpu.dcache.demand_miss_rate::total     0.006180                       # miss rate for demand accesses
system.cpu.dcache.overall_miss_rate::.cpu.data     0.006180                       # miss rate for overall accesses
system.cpu.dcache.overall_miss_rate::total     0.006180                       # miss rate for overall accesses
system.cpu.dcache.demand_avg_miss_latency::.cpu.data 81913.220438                       # average overall miss latency
system.cpu.dcache.demand_avg_miss_latency::total 81913.220438                       # average overall miss latency
system.cpu.dcache.overall_avg_miss_latency::.cpu.data 81913.220438                       # average overall miss latency
system.cpu.dcache.overall_avg_miss_latency::total 81913.220438                       # average overall miss latency
system.cpu.dcache.blocked_cycles::no_mshrs            0                       # number of cycles access was blocked
system.cpu.dcache.blocked_cycles::no_targets            0                       # number of cycles access was blocked
system.cpu.dcache.blocked::no_mshrs                 0                       # number of cycles access was blocked
system.cpu.dcache.blocked::no_targets               0                       # number of cycles access was blocked
system.cpu.dcache.avg_blocked_cycles::no_mshrs          nan                       # average number of cycles each access was blocked
system.cpu.dcache.avg_blocked_cycles::no_targets          nan                       # average number of cycles each access was blocked
system.cpu.dcache.writebacks::.writebacks       632944                       # number of writebacks
system.cpu.dcache.writebacks::total            632944                       # number of writebacks
system.cpu.dcache.demand_mshr_misses::.cpu.data      1512015                       # number of demand (read+write) MSHR misses
system.cpu.dcache.demand_mshr_misses::total      1512015                       # number of demand (read+write) MSHR misses
system.cpu.dcache.overall_mshr_misses::.cpu.data      1512015                       # number of overall MSHR misses
system.cpu.dcache.overall_mshr_misses::total      1512015                       # number of overall MSHR misses
system.cpu.dcache.demand_mshr_miss_latency::.cpu.data 120829988000                       # number of demand (read+write) MSHR miss cycles
system.cpu.dcache.demand_mshr_miss_latency::total 120829988000                       # number of demand (read+write) MSHR miss cycles
system.cpu.dcache.overall_mshr_miss_latency::.cpu.data 120829988000                       # number of overall MSHR miss cycles
system.cpu.dcache.overall_mshr_miss_latency::total 120829988000                       # number of overall MSHR miss cycles
system.cpu.dcache.demand_mshr_miss_rate::.cpu.data     0.006180                       # mshr miss rate for demand accesses
system.cpu.dcache.demand_mshr_miss_rate::total     0.006180                       # mshr miss rate for demand accesses
system.cpu.dcache.overall_mshr_miss_rate::.cpu.data     0.006180                       # mshr miss rate for overall accesses
system.cpu.dcache.overall_mshr_miss_rate::total     0.006180                       # mshr miss rate for overall accesses
system.cpu.dcache.demand_avg_mshr_miss_latency::.cpu.data 79913.220438                       # average overall mshr miss latency
system.cpu.dcache.demand_avg_mshr_miss_latency::total 79913.220438                       # average overall mshr miss latency
system.cpu.dcache.overall_avg_mshr_miss_latency::.cpu.data 79913.220438                       # average overall mshr miss latency
system.cpu.dcache.overall_avg_mshr_miss_latency::total 79913.220438                       # average overall mshr miss latency
system.cpu.dcache.replacements                1510991                       # number of replacements
system.cpu.dcache.ReadReq_hits::.cpu.data    149746966                       # number of ReadReq hits
system.cpu.dcache.ReadReq_hits::total       149746966                       # number of ReadReq hits
system.cpu.dcache.ReadReq_misses::.cpu.data      1308087                       # number of ReadReq misses
system.cpu.dcache.ReadReq_misses::total       1308087                       # number of ReadReq misses
system.cpu.dcache.ReadReq_miss_latency::.cpu.data 104394948000                       # number of ReadReq miss cycles
system.cpu.dcache.ReadReq_miss_latency::total 104394948000                       # number of ReadReq miss cycles
system.cpu.dcache.ReadReq_accesses::.cpu.data    151055053                       # number of ReadReq accesses(hits+misses)
system.cpu.dcache.ReadReq_accesses::total    151055053                       # number of ReadReq accesses(hits+misses)
system.cpu.dcache.ReadReq_miss_rate::.cpu.data     0.008660                       # miss rate for ReadReq accesses
system.cpu.dcache.ReadReq_miss_rate::total     0.008660                       # miss rate for ReadReq accesses
system.cpu.dcache.ReadReq_avg_miss_latency::.cpu.data 79807.343090                       # average ReadReq miss latency
system.cpu.dcache.ReadReq_avg_miss_latency::total 79807.343090                       # average ReadReq miss latency
system.cpu.dcache.ReadReq_mshr_misses::.cpu.data      1308087                       # number of ReadReq MSHR misses
system.cpu.dcache.ReadReq_mshr_misses::total      1308087                       # number of ReadReq MSHR misses
system.cpu.dcache.ReadReq_mshr_miss_latency::.cpu.data 101778774000                       # number of ReadReq MSHR miss cycles
system.cpu.dcache.ReadReq_mshr_miss_latency::total 101778774000                       # number of ReadReq MSHR miss cycles
system.cpu.dcache.ReadReq_mshr_miss_rate::.cpu.data     0.008660                       # mshr miss rate for ReadReq accesses
system.cpu.dcache.ReadReq_mshr_miss_rate::total     0.008660                       # mshr miss rate for ReadReq accesses
system.cpu.dcache.ReadReq_avg_mshr_miss_latency::.cpu.data 77807.343090                       # average ReadReq mshr miss latency
system.cpu.dcache.ReadReq_avg_mshr_miss_latency::total 77807.343090                       # average ReadReq mshr miss latency
system.cpu.dcache.WriteReq_hits::.cpu.data     93396490                       # number of WriteReq hits
system.cpu.dcache.WriteReq_hits::total       93396490                       # number of WriteReq hits
system.cpu.dcache.WriteReq_misses::.cpu.data       203928                       # number of WriteReq misses
system.cpu.dcache.WriteReq_misses::total       203928                       # number of WriteReq misses
system.cpu.dcache.WriteReq_miss_latency::.cpu.data  19459070000                       # number of WriteReq miss cycles
system.cpu.dcache.WriteReq_miss_latency::total  19459070000                       # number of WriteReq miss cycles
system.cpu.dcache.WriteReq_accesses::.cpu.data     93600418                       # number of WriteReq accesses(hits+misses)
system.cpu.dcache.WriteReq_accesses::total     93600418                       # number of WriteReq accesses(hits+misses)
system.cpu.dcache.WriteReq_miss_rate::.cpu.data     0.002179                       # miss rate for WriteReq accesses
system.cpu.dcache.WriteReq_miss_rate::total     0.002179                       # miss rate for WriteReq accesses
system.cpu.dcache.WriteReq_avg_miss_latency::.cpu.data 95421.276137                       # average WriteReq miss latency
system.cpu.dcache.WriteReq_avg_miss_latency::total 95421.276137                       # average WriteReq miss latency
system.cpu.dcache.WriteReq_mshr_misses::.cpu.data       203928                       # number of WriteReq MSHR misses
system.cpu.dcache.WriteReq_mshr_misses::total       203928                       # number of WriteReq MSHR misses
system.cpu.dcache.WriteReq_mshr_miss_latency::.cpu.data  19051214000                       # number of WriteReq MSHR miss cycles
system.cpu.dcache.WriteReq_mshr_miss_latency::total  19051214000                       # number of WriteReq MSHR miss cycles
system.cpu.dcache.WriteReq_mshr_miss_rate::.cpu.data     0.002179                       # mshr miss rate for WriteReq accesses
system.cpu.dcache.WriteReq_mshr_miss_rate::total     0.002179                       # mshr miss rate for WriteReq accesses
system.cpu.dcache.WriteReq_avg_mshr_miss_latency::.cpu.data 93421.276137                       # average WriteReq mshr miss latency
system.cpu.dcache.WriteReq_avg_mshr_miss_latency::total 93421.276137                       # average WriteReq mshr miss latency
system.cpu.dcache.power_state.pwrStateResidencyTicks::UNDEFINED 2376389333000                       # Cumulative time (in ticks) in various power states
system.cpu.dcache.tags.tagsinuse          1023.849721                       # Cycle average of tags in use
system.cpu.dcache.tags.total_refs           244655471                       # Total number of references to valid blocks.
system.cpu.dcache.tags.sampled_refs           1512015                       # Sample count of references to valid blocks.
system.cpu.dcache.tags.avg_refs            161.807569                       # Average number of references to valid blocks.
system.cpu.dcache.tags.warmup_cycle            224000                       # Cycle when the warmup percentage was hit.
system.cpu.dcache.tags.occ_blocks::.cpu.data  1023.849721                       # Average occupied blocks per requestor
system.cpu.dcache.tags.occ_percent::.cpu.data     0.999853                       # Average percentage of cache occupancy
system.cpu.dcache.tags.occ_percent::total     0.999853                       # Average percentage of cache occupancy
system.cpu.dcache.tags.occ_task_id_blocks::1024         1024                       # Occupied blocks per task id
system.cpu.dcache.tags.age_task_id_blocks_1024::0           27                       # Occupied blocks per task id
system.cpu.dcache.tags.age_task_id_blocks_1024::1           84                       # Occupied blocks per task id
system.cpu.dcache.tags.age_task_id_blocks_1024::2          498                       # Occupied blocks per task id
system.cpu.dcache.tags.age_task_id_blocks_1024::3          415                       # Occupied blocks per task id
system.cpu.dcache.tags.occ_task_id_percent::1024            1                       # Percentage of cache occupancy per task id
system.cpu.dcache.tags.tag_accesses         490822957                       # Number of tag accesses
system.cpu.dcache.tags.data_accesses        490822957                       # Number of data accesses
system.cpu.dcache.tags.power_state.pwrStateResidencyTicks::UNDEFINED 2376389333000                       # Cumulative time (in ticks) in various power states
system.cpu.dtb.rdAccesses                   151055054                       # TLB accesses on read requests
system.cpu.dtb.wrAccesses                    93600441                       # TLB accesses on write requests
system.cpu.dtb.rdMisses                          4202                       # TLB misses on read requests
system.cpu.dtb.wrMisses                          2551                       # TLB misses on write requests
system.cpu.dtb.walker.power_state.pwrStateResidencyTicks::UNDEFINED 2376389333000                       # Cumulative time (in ticks) in various power states
system.cpu.icache.demand_hits::.cpu.inst    841887646                       # number of demand (read+write) hits
system.cpu.icache.demand_hits::total        841887646                       # number of demand (read+write) hits
system.cpu.icache.overall_hits::.cpu.inst    841887646                       # number of overall hits
system.cpu.icache.overall_hits::total       841887646                       # number of overall hits
system.cpu.icache.demand_misses::.cpu.inst      3002712                       # number of demand (read+write) misses
system.cpu.icache.demand_misses::total        3002712                       # number of demand (read+write) misses
system.cpu.icache.overall_misses::.cpu.inst      3002712                       # number of overall misses
system.cpu.icache.overall_misses::total       3002712                       # number of overall misses
system.cpu.icache.demand_miss_latency::.cpu.inst  82473179000                       # number of demand (read+write) miss cycles
system.cpu.icache.demand_miss_latency::total  82473179000                       # number of demand (read+write) miss cycles
system.cpu.icache.overall_miss_latency::.cpu.inst  82473179000                       # number of overall miss cycles
system.cpu.icache.overall_miss_latency::total  82473179000                       # number of overall miss cycles
system.cpu.icache.demand_accesses::.cpu.inst    844890358                       # number of demand (read+write) accesses
system.cpu.icache.demand_accesses::total    844890358                       # number of demand (read+write) accesses
system.cpu.icache.overall_accesses::.cpu.inst    844890358                       # number of overall (read+write) accesses
system.cpu.icache.overall_accesses::total    844890358                       # number of overall (read+write) accesses
system.cpu.icache.demand_miss_rate::.cpu.inst     0.003554                       # miss rate for demand accesses
system.cpu.icache.demand_miss_rate::total     0.003554                       # miss rate for demand accesses
system.cpu.icache.overall_miss_rate::.cpu.inst     0.003554                       # miss rate for overall accesses
system.cpu.icache.overall_miss_rate::total     0.003554                       # miss rate for overall accesses
system.cpu.icache.demand_avg_miss_latency::.cpu.inst 27466.230195                       # average overall miss latency
system.cpu.icache.demand_avg_miss_latency::total 27466.230195                       # average overall miss latency
system.cpu.icache.overall_avg_miss_latency::.cpu.inst 27466.230195                       # average overall miss latency
system.cpu.icache.overall_avg_miss_latency::total 27466.230195                       # average overall miss latency
system.cpu.icache.blocked_cycles::no_mshrs            0                       # number of cycles access was blocked
system.cpu.icache.blocked_cycles::no_targets            0                       # number of cycles access was blocked
system.cpu.icache.blocked::no_mshrs                 0                       # number of cycles access was blocked
system.cpu.icache.blocked::no_targets               0                       # number of cycles access was blocked
system.cpu.icache.avg_blocked_cycles::no_mshrs          nan                       # average number of cycles each access was blocked
system.cpu.icache.avg_blocked_cycles::no_targets          nan                       # average number of cycles each access was blocked
system.cpu.icache.demand_mshr_misses::.cpu.inst      3002712                       # number of demand (read+write) MSHR misses
system.cpu.icache.demand_mshr_misses::total      3002712                       # number of demand (read+write) MSHR misses
system.cpu.icache.overall_mshr_misses::.cpu.inst      3002712                       # number of overall MSHR misses
system.cpu.icache.overall_mshr_misses::total      3002712                       # number of overall MSHR misses
system.cpu.icache.demand_mshr_miss_latency::.cpu.inst  76467755000                       # number of demand (read+write) MSHR miss cycles
system.cpu.icache.demand_mshr_miss_latency::total  76467755000                       # number of demand (read+write) MSHR miss cycles
system.cpu.icache.overall_mshr_miss_latency::.cpu.inst  76467755000                       # number of overall MSHR miss cycles
system.cpu.icache.overall_mshr_miss_latency::total  76467755000                       # number of overall MSHR miss cycles
system.cpu.icache.demand_mshr_miss_rate::.cpu.inst     0.003554                       # mshr miss rate for demand accesses
system.cpu.icache.demand_mshr_miss_rate::total     0.003554                       # mshr miss rate for demand accesses
system.cpu.icache.overall_mshr_miss_rate::.cpu.inst     0.003554                       # mshr miss rate for overall accesses
system.cpu.icache.overall_mshr_miss_rate::total     0.003554                       # mshr miss rate for overall accesses
system.cpu.icache.demand_avg_mshr_miss_latency::.cpu.inst 25466.230195                       # average overall mshr miss latency
system.cpu.icache.demand_avg_mshr_miss_latency::total 25466.230195                       # average overall mshr miss latency
system.cpu.icache.overall_avg_mshr_miss_latency::.cpu.inst 25466.230195                       # average overall mshr miss latency
system.cpu.icache.overall_avg_mshr_miss_latency::total 25466.230195                       # average overall mshr miss latency
system.cpu.icache.replacements                3002456                       # number of replacements
system.cpu.icache.ReadReq_hits::.cpu.inst    841887646                       # number of ReadReq hits
system.cpu.icache.ReadReq_hits::total       841887646                       # number of ReadReq hits
system.cpu.icache.ReadReq_misses::.cpu.inst      3002712                       # number of ReadReq misses
system.cpu.icache.ReadReq_misses::total       3002712                       # number of ReadReq misses
system.cpu.icache.ReadReq_miss_latency::.cpu.inst  82473179000                       # number of ReadReq miss cycles
system.cpu.icache.ReadReq_miss_latency::total  82473179000                       # number of ReadReq miss cycles
system.cpu.icache.ReadReq_accesses::.cpu.inst    844890358                       # number of ReadReq accesses(hits+misses)
system.cpu.icache.ReadReq_accesses::total    844890358                       # number of ReadReq accesses(hits+misses)
system.cpu.icache.ReadReq_miss_rate::.cpu.inst     0.003554                       # miss rate for ReadReq accesses
system.cpu.icache.ReadReq_miss_rate::total     0.003554                       # miss rate for ReadReq accesses
system.cpu.icache.ReadReq_avg_miss_latency::.cpu.inst 27466.230195                       # average ReadReq miss latency
system.cpu.icache.ReadReq_avg_miss_latency::total 27466.230195                       # average ReadReq miss latency
system.cpu.icache.ReadReq_mshr_misses::.cpu.inst      3002712                       # number of ReadReq MSHR misses
system.cpu.icache.ReadReq_mshr_misses::total      3002712                       # number of ReadReq MSHR misses
system.cpu.icache.ReadReq_mshr_miss_latency::.cpu.inst  76467755000                       # number of ReadReq MSHR miss cycles
system.cpu.icache.ReadReq_mshr_miss_latency::total  76467755000                       # number of ReadReq MSHR miss cycles
system.cpu.icache.ReadReq_mshr_miss_rate::.cpu.inst     0.003554                       # mshr miss rate for ReadReq accesses
system.cpu.icache.ReadReq_mshr_miss_rate::total     0.003554                       # mshr miss rate for ReadReq accesses
system.cpu.icache.ReadReq_avg_mshr_miss_latency::.cpu.inst 25466.230195                       # average ReadReq mshr miss latency
system.cpu.icache.ReadReq_avg_mshr_miss_latency::total 25466.230195                       # average ReadReq mshr miss latency
system.cpu.icache.power_state.pwrStateResidencyTicks::UNDEFINED 2376389333000                       # Cumulative time (in ticks) in various power states
system.cpu.icache.tags.tagsinuse           255.994582                       # Cycle average of tags in use
system.cpu.icache.tags.total_refs           844890358                       # Total number of references to valid blocks.
system.cpu.icache.tags.sampled_refs           3002712                       # Sample count of references to valid blocks.
system.cpu.icache.tags.avg_refs            281.375756                       # Average number of references to valid blocks.
system.cpu.icache.tags.warmup_cycle            107000                       # Cycle when the warmup percentage was hit.
system.cpu.icache.tags.occ_blocks::.cpu.inst   255.994582                       # Average occupied blocks per requestor
system.cpu.icache.tags.occ_percent::.cpu.inst     0.999979                       # Average percentage of cache occupancy
system.cpu.icache.tags.occ_percent::total     0.999979                       # Average percentage of cache occupancy
system.cpu.icache.tags.occ_task_id_blocks::1024          256                       # Occupied blocks per task id
system.cpu.icache.tags.age_task_id_blocks_1024::0           35                       # Occupied blocks per task id
system.cpu.icache.tags.age_task_id_blocks_1024::1          105                       # Occupied blocks per task id
system.cpu.icache.tags.age_task_id_blocks_1024::2          108                       # Occupied blocks per task id
system.cpu.icache.tags.age_task_id_blocks_1024::3            8                       # Occupied blocks per task id
system.cpu.icache.tags.occ_task_id_percent::1024            1                       # Percentage of cache occupancy per task id
system.cpu.icache.tags.tag_accesses        1692783428                       # Number of tag accesses
system.cpu.icache.tags.data_accesses       1692783428                       # Number of data accesses
system.cpu.icache.tags.power_state.pwrStateResidencyTicks::UNDEFINED 2376389333000                       # Cumulative time (in ticks) in various power states
system.cpu.interrupts.clk_domain.clock          16000                       # Clock period in ticks
system.cpu.itb.rdAccesses                           0                       # TLB accesses on read requests
system.cpu.itb.wrAccesses                   844890358                       # TLB accesses on write requests
system.cpu.itb.rdMisses                             0                       # TLB misses on read requests
system.cpu.itb.wrMisses                           158                       # TLB misses on write requests
system.cpu.itb.walker.power_state.pwrStateResidencyTicks::UNDEFINED 2376389333000                       # Cumulative time (in ticks) in various power states
system.cpu.power_state.pwrStateResidencyTicks::ON 2376389333000                       # Cumulative time (in ticks) in various power states
system.cpu.thread_0.numInsts                        0                       # Number of Instructions committed
system.cpu.thread_0.numOps                          0                       # Number of Ops committed
system.cpu.thread_0.numMemRefs                      0                       # Number of Memory References
system.l2bus.trans_dist::ReadResp             4310799                       # Transaction distribution
system.l2bus.trans_dist::WritebackDirty       1044059                       # Transaction distribution
system.l2bus.trans_dist::CleanEvict           4755410                       # Transaction distribution
system.l2bus.trans_dist::ReadExReq             203928                       # Transaction distribution
system.l2bus.trans_dist::ReadExResp            203928                       # Transaction distribution
system.l2bus.trans_dist::ReadSharedReq        4310799                       # Transaction distribution
system.l2bus.pkt_count_system.cpu.icache.mem_side_port::system.l2cache.cpu_side_port      9007880                       # Packet count per connected requestor and responder (bytes)
system.l2bus.pkt_count_system.cpu.dcache.mem_side_port::system.l2cache.cpu_side_port      4535021                       # Packet count per connected requestor and responder (bytes)
system.l2bus.pkt_count::total                13542901                       # Packet count per connected requestor and responder (bytes)
system.l2bus.pkt_size_system.cpu.icache.mem_side_port::system.l2cache.cpu_side_port    192173568                       # Cumulative packet size per connected requestor and responder (bytes)
system.l2bus.pkt_size_system.cpu.dcache.mem_side_port::system.l2cache.cpu_side_port    137277376                       # Cumulative packet size per connected requestor and responder (bytes)
system.l2bus.pkt_size::total                329450944                       # Cumulative packet size per connected requestor and responder (bytes)
system.l2bus.snoops                           1286022                       # Total snoops (count)
system.l2bus.snoopTraffic                    26311360                       # Total snoop traffic (bytes)
system.l2bus.snoop_fanout::samples            5800749                       # Request fanout histogram
system.l2bus.snoop_fanout::mean              0.075179                       # Request fanout histogram
system.l2bus.snoop_fanout::stdev             0.263681                       # Request fanout histogram
system.l2bus.snoop_fanout::underflows               0      0.00%      0.00% # Request fanout histogram
system.l2bus.snoop_fanout::0                  5364652     92.48%     92.48% # Request fanout histogram
system.l2bus.snoop_fanout::1                   436097      7.52%    100.00% # Request fanout histogram
system.l2bus.snoop_fanout::2                        0      0.00%    100.00% # Request fanout histogram
system.l2bus.snoop_fanout::overflows                0      0.00%    100.00% # Request fanout histogram
system.l2bus.snoop_fanout::min_value                0                       # Request fanout histogram
system.l2bus.snoop_fanout::max_value                1                       # Request fanout histogram
system.l2bus.snoop_fanout::total              5800749                       # Request fanout histogram
system.l2bus.power_state.pwrStateResidencyTicks::UNDEFINED 2376389333000                       # Cumulative time (in ticks) in various power states
system.l2bus.reqLayer0.occupancy          10294062000                       # Layer occupancy (ticks)
system.l2bus.reqLayer0.utilization                0.4                       # Layer utilization (%)
system.l2bus.respLayer0.occupancy          9008136000                       # Layer occupancy (ticks)
system.l2bus.respLayer0.utilization               0.4                       # Layer utilization (%)
system.l2bus.respLayer1.occupancy          4536045000                       # Layer occupancy (ticks)
system.l2bus.respLayer1.utilization               0.2                       # Layer utilization (%)
system.l2cache.demand_hits::.cpu.inst         2944362                       # number of demand (read+write) hits
system.l2cache.demand_hits::.cpu.data          462292                       # number of demand (read+write) hits
system.l2cache.demand_hits::total             3406654                       # number of demand (read+write) hits
system.l2cache.overall_hits::.cpu.inst        2944362                       # number of overall hits
system.l2cache.overall_hits::.cpu.data         462292                       # number of overall hits
system.l2cache.overall_hits::total            3406654                       # number of overall hits
system.l2cache.demand_misses::.cpu.inst         58350                       # number of demand (read+write) misses
system.l2cache.demand_misses::.cpu.data       1049723                       # number of demand (read+write) misses
system.l2cache.demand_misses::total           1108073                       # number of demand (read+write) misses
system.l2cache.overall_misses::.cpu.inst        58350                       # number of overall misses
system.l2cache.overall_misses::.cpu.data      1049723                       # number of overall misses
system.l2cache.overall_misses::total          1108073                       # number of overall misses
system.l2cache.demand_miss_latency::.cpu.inst   5627796000                       # number of demand (read+write) miss cycles
system.l2cache.demand_miss_latency::.cpu.data 106581346000                       # number of demand (read+write) miss cycles
system.l2cache.demand_miss_latency::total 112209142000                       # number of demand (read+write) miss cycles
system.l2cache.overall_miss_latency::.cpu.inst   5627796000                       # number of overall miss cycles
system.l2cache.overall_miss_latency::.cpu.data 106581346000                       # number of overall miss cycles
system.l2cache.overall_miss_latency::total 112209142000                       # number of overall miss cycles
system.l2cache.demand_accesses::.cpu.inst      3002712                       # number of demand (read+write) accesses
system.l2cache.demand_accesses::.cpu.data      1512015                       # number of demand (read+write) accesses
system.l2cache.demand_accesses::total         4514727                       # number of demand (read+write) accesses
system.l2cache.overall_accesses::.cpu.inst      3002712                       # number of overall (read+write) accesses
system.l2cache.overall_accesses::.cpu.data      1512015                       # number of overall (read+write) accesses
system.l2cache.overall_accesses::total        4514727                       # number of overall (read+write) accesses
system.l2cache.demand_miss_rate::.cpu.inst     0.019432                       # miss rate for demand accesses
system.l2cache.demand_miss_rate::.cpu.data     0.694254                       # miss rate for demand accesses
system.l2cache.demand_miss_rate::total       0.245435                       # miss rate for demand accesses
system.l2cache.overall_miss_rate::.cpu.inst     0.019432                       # miss rate for overall accesses
system.l2cache.overall_miss_rate::.cpu.data     0.694254                       # miss rate for overall accesses
system.l2cache.overall_miss_rate::total      0.245435                       # miss rate for overall accesses
system.l2cache.demand_avg_miss_latency::.cpu.inst 96448.946015                       # average overall miss latency
system.l2cache.demand_avg_miss_latency::.cpu.data 101532.829137                       # average overall miss latency
system.l2cache.demand_avg_miss_latency::total 101265.117009                       # average overall miss latency
system.l2cache.overall_avg_miss_latency::.cpu.inst 96448.946015                       # average overall miss latency
system.l2cache.overall_avg_miss_latency::.cpu.data 101532.829137                       # average overall miss latency
system.l2cache.overall_avg_miss_latency::total 101265.117009                       # average overall miss latency
system.l2cache.blocked_cycles::no_mshrs             0                       # number of cycles access was blocked
system.l2cache.blocked_cycles::no_targets            0                       # number of cycles access was blocked
system.l2cache.blocked::no_mshrs                    0                       # number of cycles access was blocked
system.l2cache.blocked::no_targets                  0                       # number of cycles access was blocked
system.l2cache.avg_blocked_cycles::no_mshrs          nan                       # average number of cycles each access was blocked
system.l2cache.avg_blocked_cycles::no_targets          nan                       # average number of cycles each access was blocked
system.l2cache.writebacks::.writebacks         411115                       # number of writebacks
system.l2cache.writebacks::total               411115                       # number of writebacks
system.l2cache.demand_mshr_misses::.cpu.inst        58350                       # number of demand (read+write) MSHR misses
system.l2cache.demand_mshr_misses::.cpu.data      1049723                       # number of demand (read+write) MSHR misses
system.l2cache.demand_mshr_misses::total      1108073                       # number of demand (read+write) MSHR misses
system.l2cache.overall_mshr_misses::.cpu.inst        58350                       # number of overall MSHR misses
system.l2cache.overall_mshr_misses::.cpu.data      1049723                       # number of overall MSHR misses
system.l2cache.overall_mshr_misses::total      1108073                       # number of overall MSHR misses
system.l2cache.demand_mshr_miss_latency::.cpu.inst   4460796000                       # number of demand (read+write) MSHR miss cycles
system.l2cache.demand_mshr_miss_latency::.cpu.data  85586886000                       # number of demand (read+write) MSHR miss cycles
system.l2cache.demand_mshr_miss_latency::total  90047682000                       # number of demand (read+write) MSHR miss cycles
system.l2cache.overall_mshr_miss_latency::.cpu.inst   4460796000                       # number of overall MSHR miss cycles
system.l2cache.overall_mshr_miss_latency::.cpu.data  85586886000                       # number of overall MSHR miss cycles
system.l2cache.overall_mshr_miss_latency::total  90047682000                       # number of overall MSHR miss cycles
system.l2cache.demand_mshr_miss_rate::.cpu.inst     0.019432                       # mshr miss rate for demand accesses
system.l2cache.demand_mshr_miss_rate::.cpu.data     0.694254                       # mshr miss rate for demand accesses
system.l2cache.demand_mshr_miss_rate::total     0.245435                       # mshr miss rate for demand accesses
system.l2cache.overall_mshr_miss_rate::.cpu.inst     0.019432                       # mshr miss rate for overall accesses
system.l2cache.overall_mshr_miss_rate::.cpu.data     0.694254                       # mshr miss rate for overall accesses
system.l2cache.overall_mshr_miss_rate::total     0.245435                       # mshr miss rate for overall accesses
system.l2cache.demand_avg_mshr_miss_latency::.cpu.inst 76448.946015                       # average overall mshr miss latency
system.l2cache.demand_avg_mshr_miss_latency::.cpu.data 81532.829137                       # average overall mshr miss latency
system.l2cache.demand_avg_mshr_miss_latency::total 81265.117009                       # average overall mshr miss latency
system.l2cache.overall_avg_mshr_miss_latency::.cpu.inst 76448.946015                       # average overall mshr miss latency
system.l2cache.overall_avg_mshr_miss_latency::.cpu.data 81532.829137                       # average overall mshr miss latency
system.l2cache.overall_avg_mshr_miss_latency::total 81265.117009                       # average overall mshr miss latency
system.l2cache.replacements                   1286022                       # number of replacements
system.l2cache.WritebackDirty_hits::.writebacks       632944                       # number of WritebackDirty hits
system.l2cache.WritebackDirty_hits::total       632944                       # number of WritebackDirty hits
system.l2cache.WritebackDirty_accesses::.writebacks       632944                       # number of WritebackDirty accesses(hits+misses)
system.l2cache.WritebackDirty_accesses::total       632944                       # number of WritebackDirty accesses(hits+misses)
system.l2cache.CleanEvict_mshr_misses::.writebacks       255723                       # number of CleanEvict MSHR misses
system.l2cache.CleanEvict_mshr_misses::total       255723                       # number of CleanEvict MSHR misses
system.l2cache.CleanEvict_mshr_miss_rate::.writebacks          inf                       # mshr miss rate for CleanEvict accesses
system.l2cache.CleanEvict_mshr_miss_rate::total          inf                       # mshr miss rate for CleanEvict accesses
system.l2cache.ReadExReq_hits::.cpu.data        23564                       # number of ReadExReq hits
system.l2cache.ReadExReq_hits::total            23564                       # number of ReadExReq hits
system.l2cache.ReadExReq_misses::.cpu.data       180364                       # number of ReadExReq misses
system.l2cache.ReadExReq_misses::total         180364                       # number of ReadExReq misses
system.l2cache.ReadExReq_miss_latency::.cpu.data  17942047000                       # number of ReadExReq miss cycles
system.l2cache.ReadExReq_miss_latency::total  17942047000                       # number of ReadExReq miss cycles
system.l2cache.ReadExReq_accesses::.cpu.data       203928                       # number of ReadExReq accesses(hits+misses)
system.l2cache.ReadExReq_accesses::total       203928                       # number of ReadExReq accesses(hits+misses)
system.l2cache.ReadExReq_miss_rate::.cpu.data     0.884449                       # miss rate for ReadExReq accesses
system.l2cache.ReadExReq_miss_rate::total     0.884449                       # miss rate for ReadExReq accesses
system.l2cache.ReadExReq_avg_miss_latency::.cpu.data 99476.874543                       # average ReadExReq miss latency
system.l2cache.ReadExReq_avg_miss_latency::total 99476.874543                       # average ReadExReq miss latency
system.l2cache.ReadExReq_mshr_misses::.cpu.data       180364                       # number of ReadExReq MSHR misses
system.l2cache.ReadExReq_mshr_misses::total       180364                       # number of ReadExReq MSHR misses
system.l2cache.ReadExReq_mshr_miss_latency::.cpu.data  14334767000                       # number of ReadExReq MSHR miss cycles
system.l2cache.ReadExReq_mshr_miss_latency::total  14334767000                       # number of ReadExReq MSHR miss cycles
system.l2cache.ReadExReq_mshr_miss_rate::.cpu.data     0.884449                       # mshr miss rate for ReadExReq accesses
system.l2cache.ReadExReq_mshr_miss_rate::total     0.884449                       # mshr miss rate for ReadExReq accesses
system.l2cache.ReadExReq_avg_mshr_miss_latency::.cpu.data 79476.874543                       # average ReadExReq mshr miss latency
system.l2cache.ReadExReq_avg_mshr_miss_latency::total 79476.874543                       # average ReadExReq mshr miss latency
system.l2cache.ReadSharedReq_hits::.cpu.inst      2944362                       # number of ReadSharedReq hits
system.l2cache.ReadSharedReq_hits::.cpu.data       438728                       # number of ReadSharedReq hits
system.l2cache.ReadSharedReq_hits::total      3383090                       # number of ReadSharedReq hits
system.l2cache.ReadSharedReq_misses::.cpu.inst        58350                       # number of ReadSharedReq misses
system.l2cache.ReadSharedReq_misses::.cpu.data       869359                       # number of ReadSharedReq misses
system.l2cache.ReadSharedReq_misses::total       927709                       # number of ReadSharedReq misses
system.l2cache.ReadSharedReq_miss_latency::.cpu.inst   5627796000                       # number of ReadSharedReq miss cycles
system.l2cache.ReadSharedReq_miss_latency::.cpu.data  88639299000                       # number of ReadSharedReq miss cycles
system.l2cache.ReadSharedReq_miss_latency::total  94267095000                       # number of ReadSharedReq miss cycles
system.l2cache.ReadSharedReq_accesses::.cpu.inst      3002712                       # number of ReadSharedReq accesses(hits+misses)
system.l2cache.ReadSharedReq_accesses::.cpu.data      1308087                       # number of ReadSharedReq accesses(hits+misses)
system.l2cache.ReadSharedReq_accesses::total      4310799                       # number of ReadSharedReq accesses(hits+misses)
system.l2cache.ReadSharedReq_miss_rate::.cpu.inst     0.019432                       # miss rate for ReadSharedReq accesses
system.l2cache.ReadSharedReq_miss_rate::.cpu.data     0.664603                       # miss rate for ReadSharedReq accesses
system.l2cache.ReadSharedReq_miss_rate::total     0.215206                       # miss rate for ReadSharedReq accesses
system.l2cache.ReadSharedReq_avg_miss_latency::.cpu.inst 96448.946015                       # average ReadSharedReq miss latency
system.l2cache.ReadSharedReq_avg_miss_latency::.cpu.data 101959.373515                       # average ReadSharedReq miss latency
system.l2cache.ReadSharedReq_avg_miss_latency::total 101612.784828                       # average ReadSharedReq miss latency
system.l2cache.ReadSharedReq_mshr_misses::.cpu.inst        58350                       # number of ReadSharedReq MSHR misses
system.l2cache.ReadSharedReq_mshr_misses::.cpu.data       869359                       # number of ReadSharedReq MSHR misses
system.l2cache.ReadSharedReq_mshr_misses::total       927709                       # number of ReadSharedReq MSHR misses
system.l2cache.ReadSharedReq_mshr_miss_latency::.cpu.inst   4460796000                       # number of ReadSharedReq MSHR miss cycles
system.l2cache.ReadSharedReq_mshr_miss_latency::.cpu.data  71252119000                       # number of ReadSharedReq MSHR miss cycles
system.l2cache.ReadSharedReq_mshr_miss_latency::total  75712915000                       # number of ReadSharedReq MSHR miss cycles
system.l2cache.ReadSharedReq_mshr_miss_rate::.cpu.inst     0.019432                       # mshr miss rate for ReadSharedReq accesses
system.l2cache.ReadSharedReq_mshr_miss_rate::.cpu.data     0.664603                       # mshr miss rate for ReadSharedReq accesses
system.l2cache.ReadSharedReq_mshr_miss_rate::total     0.215206                       # mshr miss rate for ReadSharedReq accesses
system.l2cache.ReadSharedReq_avg_mshr_miss_latency::.cpu.inst 76448.946015                       # average ReadSharedReq mshr miss latency
system.l2cache.ReadSharedReq_avg_mshr_miss_latency::.cpu.data 81959.373515                       # average ReadSharedReq mshr miss latency
system.l2cache.ReadSharedReq_avg_mshr_miss_latency::total 81612.784828                       # average ReadSharedReq mshr miss latency
system.l2cache.power_state.pwrStateResidencyTicks::UNDEFINED 2376389333000                       # Cumulative time (in ticks) in various power states
system.l2cache.tags.tagsinuse             2047.818542                       # Cycle average of tags in use
system.l2cache.tags.total_refs                8772451                       # Total number of references to valid blocks.
system.l2cache.tags.sampled_refs              1288070                       # Sample count of references to valid blocks.
system.l2cache.tags.avg_refs                 6.810539                       # Average number of references to valid blocks.
system.l2cache.tags.warmup_cycle                86000                       # Cycle when the warmup percentage was hit.
system.l2cache.tags.occ_blocks::.writebacks   181.726667                       # Average occupied blocks per requestor
system.l2cache.tags.occ_blocks::.cpu.inst   270.698234                       # Average occupied blocks per requestor
system.l2cache.tags.occ_blocks::.cpu.data  1595.393641                       # Average occupied blocks per requestor
system.l2cache.tags.occ_percent::.writebacks     0.088734                       # Average percentage of cache occupancy
system.l2cache.tags.occ_percent::.cpu.inst     0.132177                       # Average percentage of cache occupancy
system.l2cache.tags.occ_percent::.cpu.data     0.779001                       # Average percentage of cache occupancy
system.l2cache.tags.occ_percent::total       0.999911                       # Average percentage of cache occupancy
system.l2cache.tags.occ_task_id_blocks::1024         2048                       # Occupied blocks per task id
system.l2cache.tags.age_task_id_blocks_1024::0           73                       # Occupied blocks per task id
system.l2cache.tags.age_task_id_blocks_1024::1          171                       # Occupied blocks per task id
system.l2cache.tags.age_task_id_blocks_1024::2          855                       # Occupied blocks per task id
system.l2cache.tags.age_task_id_blocks_1024::3          949                       # Occupied blocks per task id
system.l2cache.tags.occ_task_id_percent::1024            1                       # Percentage of cache occupancy per task id
system.l2cache.tags.tag_accesses             73513462                       # Number of tag accesses
system.l2cache.tags.data_accesses            73513462                       # Number of data accesses
system.l2cache.tags.power_state.pwrStateResidencyTicks::UNDEFINED 2376389333000                       # Cumulative time (in ticks) in various power states
system.mem_ctrl.avgPriority_.writebacks::samples    411114.00                       # Average QoS priority value for accepted requests
system.mem_ctrl.avgPriority_.cpu.inst::samples     58350.00                       # Average QoS priority value for accepted requests
system.mem_ctrl.avgPriority_.cpu.data::samples   1037877.00                       # Average QoS priority value for accepted requests
system.mem_ctrl.priorityMinLatency       0.000000018750                       # per QoS priority minimum request to response latency (s)
system.mem_ctrl.priorityMaxLatency       0.015258922500                       # per QoS priority maximum request to response latency (s)
system.mem_ctrl.numReadWriteTurnArounds         23688                       # Number of turnarounds from READ to WRITE
system.mem_ctrl.numWriteReadTurnArounds         23688                       # Number of turnarounds from WRITE to READ
system.mem_ctrl.numStayReadState              3201119                       # Number of times bus staying in READ state
system.mem_ctrl.numStayWriteState              387716                       # Number of times bus staying in WRITE state
system.mem_ctrl.readReqs                      1108073                       # Number of read requests accepted
system.mem_ctrl.writeReqs                      411115                       # Number of write requests accepted
system.mem_ctrl.readBursts                    1108073                       # Number of controller read bursts, including those serviced by the write queue
system.mem_ctrl.writeBursts                    411115                       # Number of controller write bursts, including those merged in the write queue
system.mem_ctrl.servicedByWrQ                   11846                       # Number of controller read bursts serviced by the write queue
system.mem_ctrl.mergedWrBursts                      1                       # Number of controller write bursts merged with an existing one
system.mem_ctrl.neitherReadNorWriteReqs             0                       # Number of requests that are neither read nor write
system.mem_ctrl.avgRdQLen                        1.00                       # Average read queue length when enqueuing
system.mem_ctrl.avgWrQLen                       24.86                       # Average write queue length when enqueuing
system.mem_ctrl.numRdRetry                          0                       # Number of times read queue was full causing retry
system.mem_ctrl.numWrRetry                          0                       # Number of times write queue was full causing retry
system.mem_ctrl.readPktSize::0                      0                       # Read request sizes (log2)
system.mem_ctrl.readPktSize::1                      0                       # Read request sizes (log2)
system.mem_ctrl.readPktSize::2                      0                       # Read request sizes (log2)
system.mem_ctrl.readPktSize::3                      0                       # Read request sizes (log2)
system.mem_ctrl.readPktSize::4                      0                       # Read request sizes (log2)
system.mem_ctrl.readPktSize::5                      0                       # Read request sizes (log2)
system.mem_ctrl.readPktSize::6                1108073                       # Read request sizes (log2)
system.mem_ctrl.writePktSize::0                     0                       # Write request sizes (log2)
system.mem_ctrl.writePktSize::1                     0                       # Write request sizes (log2)
system.mem_ctrl.writePktSize::2                     0                       # Write request sizes (log2)
system.mem_ctrl.writePktSize::3                     0                       # Write request sizes (log2)
system.mem_ctrl.writePktSize::4                     0                       # Write request sizes (log2)
system.mem_ctrl.writePktSize::5                     0                       # Write request sizes (log2)
system.mem_ctrl.writePktSize::6                411115                       # Write request sizes (log2)
system.mem_ctrl.rdQLenPdf::0                  1096227                       # What read queue length does an incoming req see
system.mem_ctrl.rdQLenPdf::1                        0                       # What read queue length does an incoming req see
system.mem_ctrl.rdQLenPdf::2                        0                       # What read queue length does an incoming req see
system.mem_ctrl.rdQLenPdf::3                        0                       # What read queue length does an incoming req see
system.mem_ctrl.rdQLenPdf::4                        0                       # What read queue length does an incoming req see
system.mem_ctrl.rdQLenPdf::5                        0                       # What read queue length does an incoming req see
system.mem_ctrl.rdQLenPdf::6                        0                       # What read queue length does an incoming req see
system.mem_ctrl.rdQLenPdf::7                        0                       # What read queue length does an incoming req see
system.mem_ctrl.rdQLenPdf::8                        0                       # What read queue length does an incoming req see
system.mem_ctrl.rdQLenPdf::9                        0                       # What read queue length does an incoming req see
system.mem_ctrl.rdQLenPdf::10                       0                       # What read queue length does an incoming req see
system.mem_ctrl.rdQLenPdf::11                       0                       # What read queue length does an incoming req see
system.mem_ctrl.rdQLenPdf::12                       0                       # What read queue length does an incoming req see
system.mem_ctrl.rdQLenPdf::13                       0                       # What read queue length does an incoming req see
system.mem_ctrl.rdQLenPdf::14                       0                       # What read queue length does an incoming req see
system.mem_ctrl.rdQLenPdf::15                       0                       # What read queue length does an incoming req see
system.mem_ctrl.rdQLenPdf::16                       0                       # What read queue length does an incoming req see
system.mem_ctrl.rdQLenPdf::17                       0                       # What read queue length does an incoming req see
system.mem_ctrl.rdQLenPdf::18                       0                       # What read queue length does an incoming req see
system.mem_ctrl.rdQLenPdf::19                       0                       # What read queue length does an incoming req see
system.mem_ctrl.rdQLenPdf::20                       0                       # What read queue length does an incoming req see
system.mem_ctrl.rdQLenPdf::21                       0                       # What read queue length does an incoming req see
system.mem_ctrl.rdQLenPdf::22                       0                       # What read queue length does an incoming req see
system.mem_ctrl.rdQLenPdf::23                       0                       # What read queue length does an incoming req see
system.mem_ctrl.rdQLenPdf::24                       0                       # What read queue length does an incoming req see
system.mem_ctrl.rdQLenPdf::25                       0                       # What read queue length does an incoming req see
system.mem_ctrl.rdQLenPdf::26                       0                       # What read queue length does an incoming req see
system.mem_ctrl.rdQLenPdf::27                       0                       # What read queue length does an incoming req see
system.mem_ctrl.rdQLenPdf::28                       0                       # What read queue length does an incoming req see
system.mem_ctrl.rdQLenPdf::29                       0                       # What read queue length does an incoming req see
system.mem_ctrl.rdQLenPdf::30                       0                       # What read queue length does an incoming req see
system.mem_ctrl.rdQLenPdf::31                       0                       # What read queue length does an incoming req see
system.mem_ctrl.wrQLenPdf::0                        1                       # What write queue length does an incoming req see
system.mem_ctrl.wrQLenPdf::1                        1                       # What write queue length does an incoming req see
system.mem_ctrl.wrQLenPdf::2                        1                       # What write queue length does an incoming req see
system.mem_ctrl.wrQLenPdf::3                        1                       # What write queue length does an incoming req see
system.mem_ctrl.wrQLenPdf::4                        1                       # What write queue length does an incoming req see
system.mem_ctrl.wrQLenPdf::5                        1                       # What write queue length does an incoming req see
system.mem_ctrl.wrQLenPdf::6                        1                       # What write queue length does an incoming req see
system.mem_ctrl.wrQLenPdf::7                        1                       # What write queue length does an incoming req see
system.mem_ctrl.wrQLenPdf::8                        1                       # What write queue length does an incoming req see
system.mem_ctrl.wrQLenPdf::9                        1                       # What write queue length does an incoming req see
system.mem_ctrl.wrQLenPdf::10                       1                       # What write queue length does an incoming req see
system.mem_ctrl.wrQLenPdf::11                       1                       # What write queue length does an incoming req see
system.mem_ctrl.wrQLenPdf::12                       1                       # What write queue length does an incoming req see
system.mem_ctrl.wrQLenPdf::13                       1                       # What write queue length does an incoming req see
system.mem_ctrl.wrQLenPdf::14                       1                       # What write queue length does an incoming req see
system.mem_ctrl.wrQLenPdf::15                   15079                       # What write queue length does an incoming req see
system.mem_ctrl.wrQLenPdf::16                   15947                       # What write queue length does an incoming req see
system.mem_ctrl.wrQLenPdf::17                   23420                       # What write queue length does an incoming req see
system.mem_ctrl.wrQLenPdf::18                   24075                       # What write queue length does an incoming req see
system.mem_ctrl.wrQLenPdf::19                   23923                       # What write queue length does an incoming req see
system.mem_ctrl.wrQLenPdf::20                   23748                       # What write queue length does an incoming req see
system.mem_ctrl.wrQLenPdf::21                   24234                       # What write queue length does an incoming req see
system.mem_ctrl.wrQLenPdf::22                   23740                       # What write queue length does an incoming req see
system.mem_ctrl.wrQLenPdf::23                   23690                       # What write queue length does an incoming req see
system.mem_ctrl.wrQLenPdf::24                   23688                       # What write queue length does an incoming req see
system.mem_ctrl.wrQLenPdf::25                   23688                       # What write queue length does an incoming req see
system.mem_ctrl.wrQLenPdf::26                   23688                       # What write queue length does an incoming req see
system.mem_ctrl.wrQLenPdf::27                   23688                       # What write queue length does an incoming req see
system.mem_ctrl.wrQLenPdf::28                   23688                       # What write queue length does an incoming req see
system.mem_ctrl.wrQLenPdf::29                   23688                       # What write queue length does an incoming req see
system.mem_ctrl.wrQLenPdf::30                   23688                       # What write queue length does an incoming req see
system.mem_ctrl.wrQLenPdf::31                   23688                       # What write queue length does an incoming req see
system.mem_ctrl.wrQLenPdf::32                   23688                       # What write queue length does an incoming req see
system.mem_ctrl.wrQLenPdf::33                      51                       # What write queue length does an incoming req see
system.mem_ctrl.wrQLenPdf::34                       0                       # What write queue length does an incoming req see
system.mem_ctrl.wrQLenPdf::35                       0                       # What write queue length does an incoming req see
system.mem_ctrl.wrQLenPdf::36                       0                       # What write queue length does an incoming req see
system.mem_ctrl.wrQLenPdf::37                       0                       # What write queue length does an incoming req see
system.mem_ctrl.wrQLenPdf::38                       0                       # What write queue length does an incoming req see
system.mem_ctrl.wrQLenPdf::39                       0                       # What write queue length does an incoming req see
system.mem_ctrl.wrQLenPdf::40                       0                       # What write queue length does an incoming req see
system.mem_ctrl.wrQLenPdf::41                       0                       # What write queue length does an incoming req see
system.mem_ctrl.wrQLenPdf::42                       0                       # What write queue length does an incoming req see
system.mem_ctrl.wrQLenPdf::43                       0                       # What write queue length does an incoming req see
system.mem_ctrl.wrQLenPdf::44                       0                       # What write queue length does an incoming req see
system.mem_ctrl.wrQLenPdf::45                       0                       # What write queue length does an incoming req see
system.mem_ctrl.wrQLenPdf::46                       0                       # What write queue length does an incoming req see
system.mem_ctrl.wrQLenPdf::47                       0                       # What write queue length does an incoming req see
system.mem_ctrl.wrQLenPdf::48                       0                       # What write queue length does an incoming req see
system.mem_ctrl.wrQLenPdf::49                       0                       # What write queue length does an incoming req see
system.mem_ctrl.wrQLenPdf::50                       0                       # What write queue length does an incoming req see
system.mem_ctrl.wrQLenPdf::51                       0                       # What write queue length does an incoming req see
system.mem_ctrl.wrQLenPdf::52                       0                       # What write queue length does an incoming req see
system.mem_ctrl.wrQLenPdf::53                       0                       # What write queue length does an incoming req see
system.mem_ctrl.wrQLenPdf::54                       0                       # What write queue length does an incoming req see
system.mem_ctrl.wrQLenPdf::55                       0                       # What write queue length does an incoming req see
system.mem_ctrl.wrQLenPdf::56                       0                       # What write queue length does an incoming req see
system.mem_ctrl.wrQLenPdf::57                       0                       # What write queue length does an incoming req see
system.mem_ctrl.wrQLenPdf::58                       0                       # What write queue length does an incoming req see
system.mem_ctrl.wrQLenPdf::59                       0                       # What write queue length does an incoming req see
system.mem_ctrl.wrQLenPdf::60                       0                       # What write queue length does an incoming req see
system.mem_ctrl.wrQLenPdf::61                       0                       # What write queue length does an incoming req see
system.mem_ctrl.wrQLenPdf::62                       0                       # What write queue length does an incoming req see
system.mem_ctrl.wrQLenPdf::63                       0                       # What write queue length does an incoming req see
system.mem_ctrl.rdPerTurnAround::samples        23688                       # Reads before turning the bus around for writes
system.mem_ctrl.rdPerTurnAround::mean       46.277271                       # Reads before turning the bus around for writes
system.mem_ctrl.rdPerTurnAround::gmean      37.156031                       # Reads before turning the bus around for writes
system.mem_ctrl.rdPerTurnAround::stdev      58.281019                       # Reads before turning the bus around for writes
system.mem_ctrl.rdPerTurnAround::0-127          23303     98.37%     98.37% # Reads before turning the bus around for writes
system.mem_ctrl.rdPerTurnAround::128-255          321      1.36%     99.73% # Reads before turning the bus around for writes
system.mem_ctrl.rdPerTurnAround::256-383            1      0.00%     99.73% # Reads before turning the bus around for writes
system.mem_ctrl.rdPerTurnAround::896-1023           61      0.26%     99.99% # Reads before turning the bus around for writes
system.mem_ctrl.rdPerTurnAround::1152-1279            1      0.00%    100.00% # Reads before turning the bus around for writes
system.mem_ctrl.rdPerTurnAround::2688-2815            1      0.00%    100.00% # Reads before turning the bus around for writes
system.mem_ctrl.rdPerTurnAround::total          23688                       # Reads before turning the bus around for writes
system.mem_ctrl.wrPerTurnAround::samples        23688                       # Writes before turning the bus around for reads
system.mem_ctrl.wrPerTurnAround::mean       17.354441                       # Writes before turning the bus around for reads
system.mem_ctrl.wrPerTurnAround::gmean      17.326842                       # Writes before turning the bus around for reads
system.mem_ctrl.wrPerTurnAround::stdev       0.968323                       # Writes before turning the bus around for reads
system.mem_ctrl.wrPerTurnAround::16              7595     32.06%     32.06% # Writes before turning the bus around for reads
system.mem_ctrl.wrPerTurnAround::17               902      3.81%     35.87% # Writes before turning the bus around for reads
system.mem_ctrl.wrPerTurnAround::18             14391     60.75%     96.62% # Writes before turning the bus around for reads
system.mem_ctrl.wrPerTurnAround::19               800      3.38%    100.00% # Writes before turning the bus around for reads
system.mem_ctrl.wrPerTurnAround::total          23688                       # Writes before turning the bus around for reads
system.mem_ctrl.bytesReadWrQ                   758144                       # Total number of bytes read from write queue
system.mem_ctrl.bytesReadSys                 70916672                       # Total read bytes from the system interface side
system.mem_ctrl.bytesWrittenSys              26311360                       # Total written bytes from the system interface side
system.mem_ctrl.avgRdBWSys                      29.84                       # Average system read bandwidth in MiByte/s
system.mem_ctrl.avgWrBWSys                      11.07                       # Average system write bandwidth in MiByte/s
system.mem_ctrl.totGap                   2376389232000                       # Total gap between requests
system.mem_ctrl.avgGap                     1564249.61                       # Average gap between requests
system.mem_ctrl.requestorReadBytes::.cpu.inst      3734400                       # Per-requestor bytes read from memory
system.mem_ctrl.requestorReadBytes::.cpu.data     66424128                       # Per-requestor bytes read from memory
system.mem_ctrl.requestorWriteBytes::.writebacks     26309888                       # Per-requestor bytes write to memory
system.mem_ctrl.requestorReadRate::.cpu.inst 1571459.671250762884                       # Per-requestor bytes read from memory rate (Bytes/sec)
system.mem_ctrl.requestorReadRate::.cpu.data 27951702.642994482070                       # Per-requestor bytes read from memory rate (Bytes/sec)
system.mem_ctrl.requestorWriteRate::.writebacks 11071371.022687552497                       # Per-requestor bytes write to memory rate (Bytes/sec)
system.mem_ctrl.requestorReadAccesses::.cpu.inst        58350                       # Per-requestor read serviced memory accesses
system.mem_ctrl.requestorReadAccesses::.cpu.data      1049723                       # Per-requestor read serviced memory accesses
system.mem_ctrl.requestorWriteAccesses::.writebacks       411115                       # Per-requestor write serviced memory accesses
system.mem_ctrl.requestorReadTotalLat::.cpu.inst   1467638250                       # Per-requestor read total memory access latency
system.mem_ctrl.requestorReadTotalLat::.cpu.data  31767076250                       # Per-requestor read total memory access latency
system.mem_ctrl.requestorWriteTotalLat::.writebacks 56600527871750                       # Per-requestor write total memory access latency
system.mem_ctrl.requestorReadAvgLat::.cpu.inst     25152.33                       # Per-requestor read average memory access latency
system.mem_ctrl.requestorReadAvgLat::.cpu.data     30262.34                       # Per-requestor read average memory access latency
system.mem_ctrl.requestorWriteAvgLat::.writebacks 137675657.35                       # Per-requestor write average memory access latency
system.mem_ctrl.dram.bytes_read::.cpu.inst      3734400                       # Number of bytes read from this memory
system.mem_ctrl.dram.bytes_read::.cpu.data     67182272                       # Number of bytes read from this memory
system.mem_ctrl.dram.bytes_read::total       70916672                       # Number of bytes read from this memory
system.mem_ctrl.dram.bytes_inst_read::.cpu.inst      3734400                       # Number of instructions bytes read from this memory
system.mem_ctrl.dram.bytes_inst_read::total      3734400                       # Number of instructions bytes read from this memory
system.mem_ctrl.dram.bytes_written::.writebacks     26311360                       # Number of bytes written to this memory
system.mem_ctrl.dram.bytes_written::total     26311360                       # Number of bytes written to this memory
system.mem_ctrl.dram.num_reads::.cpu.inst        58350                       # Number of read requests responded to by this memory
system.mem_ctrl.dram.num_reads::.cpu.data      1049723                       # Number of read requests responded to by this memory
system.mem_ctrl.dram.num_reads::total         1108073                       # Number of read requests responded to by this memory
system.mem_ctrl.dram.num_writes::.writebacks       411115                       # Number of write requests responded to by this memory
system.mem_ctrl.dram.num_writes::total         411115                       # Number of write requests responded to by this memory
system.mem_ctrl.dram.bw_read::.cpu.inst       1571460                       # Total read bandwidth from this memory (bytes/s)
system.mem_ctrl.dram.bw_read::.cpu.data      28270735                       # Total read bandwidth from this memory (bytes/s)
system.mem_ctrl.dram.bw_read::total          29842194                       # Total read bandwidth from this memory (bytes/s)
system.mem_ctrl.dram.bw_inst_read::.cpu.inst      1571460                       # Instruction read bandwidth from this memory (bytes/s)
system.mem_ctrl.dram.bw_inst_read::total      1571460                       # Instruction read bandwidth from this memory (bytes/s)
system.mem_ctrl.dram.bw_write::.writebacks     11071990                       # Write bandwidth from this memory (bytes/s)
system.mem_ctrl.dram.bw_write::total         11071990                       # Write bandwidth from this memory (bytes/s)
system.mem_ctrl.dram.bw_total::.writebacks     11071990                       # Total bandwidth to/from this memory (bytes/s)
system.mem_ctrl.dram.bw_total::.cpu.inst      1571460                       # Total bandwidth to/from this memory (bytes/s)
system.mem_ctrl.dram.bw_total::.cpu.data     28270735                       # Total bandwidth to/from this memory (bytes/s)
system.mem_ctrl.dram.bw_total::total         40914185                       # Total bandwidth to/from this memory (bytes/s)
system.mem_ctrl.dram.readBursts               1096227                       # Number of DRAM read bursts
system.mem_ctrl.dram.writeBursts               411092                       # Number of DRAM write bursts
system.mem_ctrl.dram.perBankRdBursts::0         63939                       # Per bank write bursts
system.mem_ctrl.dram.perBankRdBursts::1         85066                       # Per bank write bursts
system.mem_ctrl.dram.perBankRdBursts::2         56012                       # Per bank write bursts
system.mem_ctrl.dram.perBankRdBursts::3         78118                       # Per bank write bursts
system.mem_ctrl.dram.perBankRdBursts::4         60400                       # Per bank write bursts
system.mem_ctrl.dram.perBankRdBursts::5         76337                       # Per bank write bursts
system.mem_ctrl.dram.perBankRdBursts::6         51147                       # Per bank write bursts
system.mem_ctrl.dram.perBankRdBursts::7         65590                       # Per bank write bursts
system.mem_ctrl.dram.perBankRdBursts::8         51599                       # Per bank write bursts
system.mem_ctrl.dram.perBankRdBursts::9         60978                       # Per bank write bursts
system.mem_ctrl.dram.perBankRdBursts::10        49749                       # Per bank write bursts
system.mem_ctrl.dram.perBankRdBursts::11        82845                       # Per bank write bursts
system.mem_ctrl.dram.perBankRdBursts::12        71202                       # Per bank write bursts
system.mem_ctrl.dram.perBankRdBursts::13        83196                       # Per bank write bursts
system.mem_ctrl.dram.perBankRdBursts::14        66054                       # Per bank write bursts
system.mem_ctrl.dram.perBankRdBursts::15        93995                       # Per bank write bursts
system.mem_ctrl.dram.perBankWrBursts::0         16315                       # Per bank write bursts
system.mem_ctrl.dram.perBankWrBursts::1         37807                       # Per bank write bursts
system.mem_ctrl.dram.perBankWrBursts::2         26725                       # Per bank write bursts
system.mem_ctrl.dram.perBankWrBursts::3         37277                       # Per bank write bursts
system.mem_ctrl.dram.perBankWrBursts::4         34609                       # Per bank write bursts
system.mem_ctrl.dram.perBankWrBursts::5         50461                       # Per bank write bursts
system.mem_ctrl.dram.perBankWrBursts::6         31518                       # Per bank write bursts
system.mem_ctrl.dram.perBankWrBursts::7         36304                       # Per bank write bursts
system.mem_ctrl.dram.perBankWrBursts::8         31458                       # Per bank write bursts
system.mem_ctrl.dram.perBankWrBursts::9         32469                       # Per bank write bursts
system.mem_ctrl.dram.perBankWrBursts::10        12734                       # Per bank write bursts
system.mem_ctrl.dram.perBankWrBursts::11        10695                       # Per bank write bursts
system.mem_ctrl.dram.perBankWrBursts::12        13528                       # Per bank write bursts
system.mem_ctrl.dram.perBankWrBursts::13        12897                       # Per bank write bursts
system.mem_ctrl.dram.perBankWrBursts::14        12788                       # Per bank write bursts
system.mem_ctrl.dram.perBankWrBursts::15        13507                       # Per bank write bursts
system.mem_ctrl.dram.totQLat              12680458250                       # Total ticks spent queuing
system.mem_ctrl.dram.totBusLat             5481135000                       # Total ticks spent in databus transfers
system.mem_ctrl.dram.totMemAccLat         33234714500                       # Total ticks spent from burst creation until serviced by the DRAM
system.mem_ctrl.dram.avgQLat                 11567.37                       # Average queueing delay per DRAM burst
system.mem_ctrl.dram.avgBusLat                5000.00                       # Average bus latency per DRAM burst
system.mem_ctrl.dram.avgMemAccLat            30317.37                       # Average memory access latency per DRAM burst
system.mem_ctrl.dram.readRowHits               645216                       # Number of row buffer hits during reads
system.mem_ctrl.dram.writeRowHits              340093                       # Number of row buffer hits during writes
system.mem_ctrl.dram.readRowHitRate             58.86                       # Row buffer hit rate for reads
system.mem_ctrl.dram.writeRowHitRate            82.73                       # Row buffer hit rate for writes
system.mem_ctrl.dram.bytesPerActivate::samples       522006                       # Bytes accessed per row activation
system.mem_ctrl.dram.bytesPerActivate::mean   184.800083                       # Bytes accessed per row activation
system.mem_ctrl.dram.bytesPerActivate::gmean   122.755055                       # Bytes accessed per row activation
system.mem_ctrl.dram.bytesPerActivate::stdev   213.638711                       # Bytes accessed per row activation
system.mem_ctrl.dram.bytesPerActivate::0-127       269612     51.65%     51.65% # Bytes accessed per row activation
system.mem_ctrl.dram.bytesPerActivate::128-255       127899     24.50%     76.15% # Bytes accessed per row activation
system.mem_ctrl.dram.bytesPerActivate::256-383        53406     10.23%     86.38% # Bytes accessed per row activation
system.mem_ctrl.dram.bytesPerActivate::384-511        28944      5.54%     91.93% # Bytes accessed per row activation
system.mem_ctrl.dram.bytesPerActivate::512-639        10575      2.03%     93.95% # Bytes accessed per row activation
system.mem_ctrl.dram.bytesPerActivate::640-767         7151      1.37%     95.32% # Bytes accessed per row activation
system.mem_ctrl.dram.bytesPerActivate::768-895         5753      1.10%     96.42% # Bytes accessed per row activation
system.mem_ctrl.dram.bytesPerActivate::896-1023         5401      1.03%     97.46% # Bytes accessed per row activation
system.mem_ctrl.dram.bytesPerActivate::1024-1151        13265      2.54%    100.00% # Bytes accessed per row activation
system.mem_ctrl.dram.bytesPerActivate::total       522006                       # Bytes accessed per row activation
system.mem_ctrl.dram.bytesRead               70158528                       # Total number of bytes read from DRAM
system.mem_ctrl.dram.bytesWritten            26309888                       # Total number of bytes written to DRAM
system.mem_ctrl.dram.avgRdBW                29.523162                       # Average DRAM read bandwidth in MiBytes/s
system.mem_ctrl.dram.avgWrBW                11.071371                       # Average DRAM write bandwidth in MiBytes/s
system.mem_ctrl.dram.peakBW                  12800.00                       # Theoretical peak bandwidth in MiByte/s
system.mem_ctrl.dram.busUtil                     0.32                       # Data bus utilization in percentage
system.mem_ctrl.dram.busUtilRead                 0.23                       # Data bus utilization in percentage for reads
system.mem_ctrl.dram.busUtilWrite                0.09                       # Data bus utilization in percentage for writes
system.mem_ctrl.dram.pageHitRate                65.37                       # Row buffer hit rate, read and write combined
system.mem_ctrl.dram.power_state.pwrStateResidencyTicks::UNDEFINED 2376389333000                       # Cumulative time (in ticks) in various power states
system.mem_ctrl.dram.rank0.actEnergy       1677742920                       # Energy for activate commands per rank (pJ)
system.mem_ctrl.dram.rank0.preEnergy        891730125                       # Energy for precharge commands per rank (pJ)
system.mem_ctrl.dram.rank0.readEnergy      3831388260                       # Energy for read commands per rank (pJ)
system.mem_ctrl.dram.rank0.writeEnergy     1414703520                       # Energy for write commands per rank (pJ)
system.mem_ctrl.dram.rank0.refreshEnergy 187589971920.000031                       # Energy for refresh commands per rank (pJ)
system.mem_ctrl.dram.rank0.actBackEnergy 274178637780                       # Energy for active background per rank (pJ)
system.mem_ctrl.dram.rank0.preBackEnergy 681646230240                       # Energy for precharge background per rank (pJ)
system.mem_ctrl.dram.rank0.actPowerDownEnergy            0                       # Energy for active power-down per rank (pJ)
system.mem_ctrl.dram.rank0.prePowerDownEnergy            0                       # Energy for precharge power-down per rank (pJ)
system.mem_ctrl.dram.rank0.selfRefreshEnergy            0                       # Energy for self refresh per rank (pJ)
system.mem_ctrl.dram.rank0.totalEnergy   1151230404765                       # Total energy per rank (pJ)
system.mem_ctrl.dram.rank0.averagePower    484.445200                       # Core power per rank (mW)
system.mem_ctrl.dram.rank0.totalIdleTime            0                       # Total Idle time Per DRAM Rank
system.mem_ctrl.dram.rank0.pwrStateTime::IDLE 1769472391250                       # Time in different power states
system.mem_ctrl.dram.rank0.pwrStateTime::REF  79352780000                       # Time in different power states
system.mem_ctrl.dram.rank0.pwrStateTime::SREF            0                       # Time in different power states
system.mem_ctrl.dram.rank0.pwrStateTime::PRE_PDN            0                       # Time in different power states
system.mem_ctrl.dram.rank0.pwrStateTime::ACT 527564161750                       # Time in different power states
system.mem_ctrl.dram.rank0.pwrStateTime::ACT_PDN            0                       # Time in different power states
system.mem_ctrl.dram.rank1.actEnergy       2049408480                       # Energy for activate commands per rank (pJ)
system.mem_ctrl.dram.rank1.preEnergy       1089282645                       # Energy for precharge commands per rank (pJ)
system.mem_ctrl.dram.rank1.readEnergy      3995672520                       # Energy for read commands per rank (pJ)
system.mem_ctrl.dram.rank1.writeEnergy      731196720                       # Energy for write commands per rank (pJ)
system.mem_ctrl.dram.rank1.refreshEnergy 187589971920.000031                       # Energy for refresh commands per rank (pJ)
system.mem_ctrl.dram.rank1.actBackEnergy 232489920780                       # Energy for active background per rank (pJ)
system.mem_ctrl.dram.rank1.preBackEnergy 716752518240                       # Energy for precharge background per rank (pJ)
system.mem_ctrl.dram.rank1.actPowerDownEnergy            0                       # Energy for active power-down per rank (pJ)
system.mem_ctrl.dram.rank1.prePowerDownEnergy            0                       # Energy for precharge power-down per rank (pJ)
system.mem_ctrl.dram.rank1.selfRefreshEnergy            0                       # Energy for self refresh per rank (pJ)
system.mem_ctrl.dram.rank1.totalEnergy   1144697971305                       # Total energy per rank (pJ)
system.mem_ctrl.dram.rank1.averagePower    481.696309                       # Core power per rank (mW)
system.mem_ctrl.dram.rank1.totalIdleTime            0                       # Total Idle time Per DRAM Rank
system.mem_ctrl.dram.rank1.pwrStateTime::IDLE 1861177119500                       # Time in different power states
system.mem_ctrl.dram.rank1.pwrStateTime::REF  79352780000                       # Time in different power states
system.mem_ctrl.dram.rank1.pwrStateTime::SREF            0                       # Time in different power states
system.mem_ctrl.dram.rank1.pwrStateTime::PRE_PDN            0                       # Time in different power states
system.mem_ctrl.dram.rank1.pwrStateTime::ACT 435859433500                       # Time in different power states
system.mem_ctrl.dram.rank1.pwrStateTime::ACT_PDN            0                       # Time in different power states
system.mem_ctrl.power_state.pwrStateResidencyTicks::UNDEFINED 2376389333000                       # Cumulative time (in ticks) in various power states
system.membus.trans_dist::ReadResp             927709                       # Transaction distribution
system.membus.trans_dist::WritebackDirty       411115                       # Transaction distribution
system.membus.trans_dist::CleanEvict           694533                       # Transaction distribution
system.membus.trans_dist::ReadExReq            180364                       # Transaction distribution
system.membus.trans_dist::ReadExResp           180364                       # Transaction distribution
system.membus.trans_dist::ReadSharedReq        927709                       # Transaction distribution
system.membus.pkt_count_system.l2cache.mem_side_port::system.mem_ctrl.port      3321794                       # Packet count per connected requestor and responder (bytes)
system.membus.pkt_count_system.l2cache.mem_side_port::total      3321794                       # Packet count per connected requestor and responder (bytes)
system.membus.pkt_count::total                3321794                       # Packet count per connected requestor and responder (bytes)
system.membus.pkt_size_system.l2cache.mem_side_port::system.mem_ctrl.port     97228032                       # Cumulative packet size per connected requestor and responder (bytes)
system.membus.pkt_size_system.l2cache.mem_side_port::total     97228032                       # Cumulative packet size per connected requestor and responder (bytes)
system.membus.pkt_size::total                97228032                       # Cumulative packet size per connected requestor and responder (bytes)
system.membus.snoops                                0                       # Total snoops (count)
system.membus.snoopTraffic                          0                       # Total snoop traffic (bytes)
system.membus.snoop_fanout::samples           1108073                       # Request fanout histogram
system.membus.snoop_fanout::mean                    0                       # Request fanout histogram
system.membus.snoop_fanout::stdev                   0                       # Request fanout histogram
system.membus.snoop_fanout::underflows              0      0.00%      0.00% # Request fanout histogram
system.membus.snoop_fanout::0                 1108073    100.00%    100.00% # Request fanout histogram
system.membus.snoop_fanout::1                       0      0.00%    100.00% # Request fanout histogram
system.membus.snoop_fanout::overflows               0      0.00%    100.00% # Request fanout histogram
system.membus.snoop_fanout::min_value               0                       # Request fanout histogram
system.membus.snoop_fanout::max_value               0                       # Request fanout histogram
system.membus.snoop_fanout::total             1108073                       # Request fanout histogram
system.membus.power_state.pwrStateResidencyTicks::UNDEFINED 2376389333000                       # Cumulative time (in ticks) in various power states
system.membus.reqLayer2.occupancy          3858181000                       # Layer occupancy (ticks)
system.membus.reqLayer2.utilization               0.2                       # Layer utilization (%)
system.membus.respLayer0.occupancy         5941978500                       # Layer occupancy (ticks)
system.membus.respLayer0.utilization              0.3                       # Layer utilization (%)

---------- End Simulation Statistics   ----------
