
---------- Begin Simulation Statistics ----------
final_tick                                53866919000                       # Number of ticks from beginning of simulation (restored from checkpoints and never reset)
host_inst_rate                                  73790                       # Simulator instruction rate (inst/s)
host_mem_usage                                 670100                       # Number of bytes of host memory used
host_op_rate                                   150951                       # Simulator op (including micro ops) rate (op/s)
host_seconds                                   486.19                       # Real time elapsed on the host
host_tick_rate                              110793636                       # Simulator tick rate (ticks/s)
sim_freq                                 1000000000000                       # Frequency of simulated ticks
sim_insts                                    35876276                       # Number of instructions simulated
sim_ops                                      73390883                       # Number of ops (including micro ops) simulated
sim_seconds                                  0.053867                       # Number of seconds simulated
sim_ticks                                 53866919000                       # Number of ticks simulated
system.cpu.cc_regfile_reads                  17892792                       # number of cc regfile reads
system.cpu.cc_regfile_writes                 14624615                       # number of cc regfile writes
system.cpu.committedInsts                    35876276                       # Number of Instructions Simulated
system.cpu.committedOps                      73390883                       # Number of Ops (including micro ops) Simulated
system.cpu.cpi                               1.501464                       # CPI: Cycles Per Instruction
system.cpu.cpi_total                         1.501464                       # CPI: Total CPI of All Threads
system.cpu.fp_regfile_reads                 107073438                       # number of floating regfile reads
system.cpu.fp_regfile_writes                 50136145                       # number of floating regfile writes
system.cpu.idleCycles                           48747                       # Total number of cycles that the CPU has spent unscheduled due to idling
system.cpu.iew.branchMispredicts                 1487                       # Number of branch mispredicts detected at execute
system.cpu.iew.exec_branches                  3579527                       # Number of branches executed
system.cpu.iew.exec_nop                             0                       # number of nop insts executed
system.cpu.iew.exec_rate                     1.365312                       # Inst execution rate
system.cpu.iew.exec_refs                      6501567                       # number of memory reference insts executed
system.cpu.iew.exec_stores                     585841                       # Number of stores executed
system.cpu.iew.exec_swp                             0                       # number of swp insts executed
system.cpu.iew.iewBlockCycles                26638634                       # Number of cycles IEW is blocking
system.cpu.iew.iewDispLoadInsts               5916797                       # Number of dispatched load instructions
system.cpu.iew.iewDispNonSpecInsts                 54                       # Number of dispatched non-speculative instructions
system.cpu.iew.iewDispSquashedInsts               163                       # Number of squashed instructions skipped by dispatch
system.cpu.iew.iewDispStoreInsts               586782                       # Number of dispatched store instructions
system.cpu.iew.iewDispatchedInsts            73554282                       # Number of instructions dispatched to IQ
system.cpu.iew.iewExecLoadInsts               5915726                       # Number of load instructions executed
system.cpu.iew.iewExecSquashedInsts              1844                       # Number of squashed instructions skipped in execute
system.cpu.iew.iewExecutedInsts              73545177                       # Number of executed instructions
system.cpu.iew.iewIQFullEvents                  46270                       # Number of times the IQ has become full, causing a stall
system.cpu.iew.iewIdleCycles                        0                       # Number of cycles IEW is idle
system.cpu.iew.iewLSQFullEvents                  1341                       # Number of times the LSQ has become full, causing a stall
system.cpu.iew.iewSquashCycles                   2340                       # Number of cycles IEW is squashing
system.cpu.iew.iewUnblockCycles                544541                       # Number of cycles IEW is unblocking
system.cpu.iew.memOrderViolationEvents             33                       # Number of memory order violations
system.cpu.iew.predictedNotTakenIncorrect         1277                       # Number of branches that were predicted not taken incorrectly
system.cpu.iew.predictedTakenIncorrect            210                       # Number of branches that were predicted taken incorrectly
system.cpu.iew.wb_consumers                 122076858                       # num instructions consuming a value
system.cpu.iew.wb_count                      73511049                       # cumulative count of insts written-back
system.cpu.iew.wb_fanout                     0.518544                       # average fanout of values written-back
system.cpu.iew.wb_producers                  63302192                       # num instructions producing a value
system.cpu.iew.wb_rate                       1.364679                       # insts written-back per cycle
system.cpu.iew.wb_sent                       73544388                       # cumulative count of insts sent to commit
system.cpu.int_regfile_reads                 35508587                       # number of integer regfile reads
system.cpu.int_regfile_writes                18912479                       # number of integer regfile writes
system.cpu.ipc                               0.666017                       # IPC: Instructions Per Cycle
system.cpu.ipc_total                         0.666017                       # IPC: Total IPC of All Threads
system.cpu.iq.FU_type_0::No_OpClass            658279      0.90%      0.90% # Type of FU issued
system.cpu.iq.FU_type_0::IntAlu              34272879     46.60%     47.50% # Type of FU issued
system.cpu.iq.FU_type_0::IntMult                   16      0.00%     47.50% # Type of FU issued
system.cpu.iq.FU_type_0::IntDiv                    35      0.00%     47.50% # Type of FU issued
system.cpu.iq.FU_type_0::FloatAdd              327847      0.45%     47.94% # Type of FU issued
system.cpu.iq.FU_type_0::FloatCmp                   0      0.00%     47.94% # Type of FU issued
system.cpu.iq.FU_type_0::FloatCvt                   0      0.00%     47.94% # Type of FU issued
system.cpu.iq.FU_type_0::FloatMult                  0      0.00%     47.94% # Type of FU issued
system.cpu.iq.FU_type_0::FloatMultAcc               0      0.00%     47.94% # Type of FU issued
system.cpu.iq.FU_type_0::FloatDiv                   0      0.00%     47.94% # Type of FU issued
system.cpu.iq.FU_type_0::FloatMisc                  0      0.00%     47.94% # Type of FU issued
system.cpu.iq.FU_type_0::FloatSqrt                  0      0.00%     47.94% # Type of FU issued
system.cpu.iq.FU_type_0::SimdAdd             11796348     16.04%     63.98% # Type of FU issued
system.cpu.iq.FU_type_0::SimdAddAcc                 0      0.00%     63.98% # Type of FU issued
system.cpu.iq.FU_type_0::SimdAlu               328422      0.45%     64.43% # Type of FU issued
system.cpu.iq.FU_type_0::SimdCmp                   12      0.00%     64.43% # Type of FU issued
system.cpu.iq.FU_type_0::SimdCvt              5898446      8.02%     72.45% # Type of FU issued
system.cpu.iq.FU_type_0::SimdMisc            12779706     17.38%     89.82% # Type of FU issued
system.cpu.iq.FU_type_0::SimdMult                   0      0.00%     89.82% # Type of FU issued
system.cpu.iq.FU_type_0::SimdMultAcc                0      0.00%     89.82% # Type of FU issued
system.cpu.iq.FU_type_0::SimdShift             982964      1.34%     91.16% # Type of FU issued
system.cpu.iq.FU_type_0::SimdShiftAcc               0      0.00%     91.16% # Type of FU issued
system.cpu.iq.FU_type_0::SimdDiv                    0      0.00%     91.16% # Type of FU issued
system.cpu.iq.FU_type_0::SimdSqrt                   0      0.00%     91.16% # Type of FU issued
system.cpu.iq.FU_type_0::SimdFloatAdd               0      0.00%     91.16% # Type of FU issued
system.cpu.iq.FU_type_0::SimdFloatAlu               0      0.00%     91.16% # Type of FU issued
system.cpu.iq.FU_type_0::SimdFloatCmp               0      0.00%     91.16% # Type of FU issued
system.cpu.iq.FU_type_0::SimdFloatCvt               0      0.00%     91.16% # Type of FU issued
system.cpu.iq.FU_type_0::SimdFloatDiv               0      0.00%     91.16% # Type of FU issued
system.cpu.iq.FU_type_0::SimdFloatMisc              0      0.00%     91.16% # Type of FU issued
system.cpu.iq.FU_type_0::SimdFloatMult              0      0.00%     91.16% # Type of FU issued
system.cpu.iq.FU_type_0::SimdFloatMultAcc            0      0.00%     91.16% # Type of FU issued
system.cpu.iq.FU_type_0::SimdFloatSqrt              0      0.00%     91.16% # Type of FU issued
system.cpu.iq.FU_type_0::SimdReduceAdd              0      0.00%     91.16% # Type of FU issued
system.cpu.iq.FU_type_0::SimdReduceAlu              0      0.00%     91.16% # Type of FU issued
system.cpu.iq.FU_type_0::SimdReduceCmp              0      0.00%     91.16% # Type of FU issued
system.cpu.iq.FU_type_0::SimdFloatReduceAdd            0      0.00%     91.16% # Type of FU issued
system.cpu.iq.FU_type_0::SimdFloatReduceCmp            0      0.00%     91.16% # Type of FU issued
system.cpu.iq.FU_type_0::SimdAes                    0      0.00%     91.16% # Type of FU issued
system.cpu.iq.FU_type_0::SimdAesMix                 0      0.00%     91.16% # Type of FU issued
system.cpu.iq.FU_type_0::SimdSha1Hash               0      0.00%     91.16% # Type of FU issued
system.cpu.iq.FU_type_0::SimdSha1Hash2              0      0.00%     91.16% # Type of FU issued
system.cpu.iq.FU_type_0::SimdSha256Hash             0      0.00%     91.16% # Type of FU issued
system.cpu.iq.FU_type_0::SimdSha256Hash2            0      0.00%     91.16% # Type of FU issued
system.cpu.iq.FU_type_0::SimdShaSigma2              0      0.00%     91.16% # Type of FU issued
system.cpu.iq.FU_type_0::SimdShaSigma3              0      0.00%     91.16% # Type of FU issued
system.cpu.iq.FU_type_0::SimdPredAlu                0      0.00%     91.16% # Type of FU issued
system.cpu.iq.FU_type_0::MemRead               345053      0.47%     91.63% # Type of FU issued
system.cpu.iq.FU_type_0::MemWrite                9887      0.01%     91.64% # Type of FU issued
system.cpu.iq.FU_type_0::FloatMemRead         5571008      7.57%     99.22% # Type of FU issued
system.cpu.iq.FU_type_0::FloatMemWrite         576119      0.78%    100.00% # Type of FU issued
system.cpu.iq.FU_type_0::IprAccess                  0      0.00%    100.00% # Type of FU issued
system.cpu.iq.FU_type_0::InstPrefetch               0      0.00%    100.00% # Type of FU issued
system.cpu.iq.FU_type_0::total               73547021                       # Type of FU issued
system.cpu.iq.fp_alu_accesses                54424434                       # Number of floating point alu accesses
system.cpu.iq.fp_inst_queue_reads           105464741                       # Number of floating instruction queue reads
system.cpu.iq.fp_inst_queue_wakeup_accesses     51007460                       # Number of floating instruction queue wakeup accesses
system.cpu.iq.fp_inst_queue_writes           51076605                       # Number of floating instruction queue writes
system.cpu.iq.fu_busy_cnt                     3487966                       # FU busy when requested
system.cpu.iq.fu_busy_rate                   0.047425                       # FU busy rate (busy events/executed inst)
system.cpu.iq.fu_full::No_OpClass                   0      0.00%      0.00% # attempts to use FU when none available
system.cpu.iq.fu_full::IntAlu                  103726      2.97%      2.97% # attempts to use FU when none available
system.cpu.iq.fu_full::IntMult                      0      0.00%      2.97% # attempts to use FU when none available
system.cpu.iq.fu_full::IntDiv                       0      0.00%      2.97% # attempts to use FU when none available
system.cpu.iq.fu_full::FloatAdd                     0      0.00%      2.97% # attempts to use FU when none available
system.cpu.iq.fu_full::FloatCmp                     0      0.00%      2.97% # attempts to use FU when none available
system.cpu.iq.fu_full::FloatCvt                     0      0.00%      2.97% # attempts to use FU when none available
system.cpu.iq.fu_full::FloatMult                    0      0.00%      2.97% # attempts to use FU when none available
system.cpu.iq.fu_full::FloatMultAcc                 0      0.00%      2.97% # attempts to use FU when none available
system.cpu.iq.fu_full::FloatDiv                     0      0.00%      2.97% # attempts to use FU when none available
system.cpu.iq.fu_full::FloatMisc                    0      0.00%      2.97% # attempts to use FU when none available
system.cpu.iq.fu_full::FloatSqrt                    0      0.00%      2.97% # attempts to use FU when none available
system.cpu.iq.fu_full::SimdAdd                      0      0.00%      2.97% # attempts to use FU when none available
system.cpu.iq.fu_full::SimdAddAcc                   0      0.00%      2.97% # attempts to use FU when none available
system.cpu.iq.fu_full::SimdAlu                     68      0.00%      2.98% # attempts to use FU when none available
system.cpu.iq.fu_full::SimdCmp                      0      0.00%      2.98% # attempts to use FU when none available
system.cpu.iq.fu_full::SimdCvt                1264549     36.25%     39.23% # attempts to use FU when none available
system.cpu.iq.fu_full::SimdMisc               2119437     60.76%     99.99% # attempts to use FU when none available
system.cpu.iq.fu_full::SimdMult                     0      0.00%     99.99% # attempts to use FU when none available
system.cpu.iq.fu_full::SimdMultAcc                  0      0.00%     99.99% # attempts to use FU when none available
system.cpu.iq.fu_full::SimdShift                    0      0.00%     99.99% # attempts to use FU when none available
system.cpu.iq.fu_full::SimdShiftAcc                 0      0.00%     99.99% # attempts to use FU when none available
system.cpu.iq.fu_full::SimdDiv                      0      0.00%     99.99% # attempts to use FU when none available
system.cpu.iq.fu_full::SimdSqrt                     0      0.00%     99.99% # attempts to use FU when none available
system.cpu.iq.fu_full::SimdFloatAdd                 0      0.00%     99.99% # attempts to use FU when none available
system.cpu.iq.fu_full::SimdFloatAlu                 0      0.00%     99.99% # attempts to use FU when none available
system.cpu.iq.fu_full::SimdFloatCmp                 0      0.00%     99.99% # attempts to use FU when none available
system.cpu.iq.fu_full::SimdFloatCvt                 0      0.00%     99.99% # attempts to use FU when none available
system.cpu.iq.fu_full::SimdFloatDiv                 0      0.00%     99.99% # attempts to use FU when none available
system.cpu.iq.fu_full::SimdFloatMisc                0      0.00%     99.99% # attempts to use FU when none available
system.cpu.iq.fu_full::SimdFloatMult                0      0.00%     99.99% # attempts to use FU when none available
system.cpu.iq.fu_full::SimdFloatMultAcc             0      0.00%     99.99% # attempts to use FU when none available
system.cpu.iq.fu_full::SimdFloatSqrt                0      0.00%     99.99% # attempts to use FU when none available
system.cpu.iq.fu_full::SimdReduceAdd                0      0.00%     99.99% # attempts to use FU when none available
system.cpu.iq.fu_full::SimdReduceAlu                0      0.00%     99.99% # attempts to use FU when none available
system.cpu.iq.fu_full::SimdReduceCmp                0      0.00%     99.99% # attempts to use FU when none available
system.cpu.iq.fu_full::SimdFloatReduceAdd            0      0.00%     99.99% # attempts to use FU when none available
system.cpu.iq.fu_full::SimdFloatReduceCmp            0      0.00%     99.99% # attempts to use FU when none available
system.cpu.iq.fu_full::SimdAes                      0      0.00%     99.99% # attempts to use FU when none available
system.cpu.iq.fu_full::SimdAesMix                   0      0.00%     99.99% # attempts to use FU when none available
system.cpu.iq.fu_full::SimdSha1Hash                 0      0.00%     99.99% # attempts to use FU when none available
system.cpu.iq.fu_full::SimdSha1Hash2                0      0.00%     99.99% # attempts to use FU when none available
system.cpu.iq.fu_full::SimdSha256Hash               0      0.00%     99.99% # attempts to use FU when none available
system.cpu.iq.fu_full::SimdSha256Hash2              0      0.00%     99.99% # attempts to use FU when none available
system.cpu.iq.fu_full::SimdShaSigma2                0      0.00%     99.99% # attempts to use FU when none available
system.cpu.iq.fu_full::SimdShaSigma3                0      0.00%     99.99% # attempts to use FU when none available
system.cpu.iq.fu_full::SimdPredAlu                  0      0.00%     99.99% # attempts to use FU when none available
system.cpu.iq.fu_full::MemRead                     38      0.00%    100.00% # attempts to use FU when none available
system.cpu.iq.fu_full::MemWrite                    58      0.00%    100.00% # attempts to use FU when none available
system.cpu.iq.fu_full::FloatMemRead                25      0.00%    100.00% # attempts to use FU when none available
system.cpu.iq.fu_full::FloatMemWrite               65      0.00%    100.00% # attempts to use FU when none available
system.cpu.iq.fu_full::IprAccess                    0      0.00%    100.00% # attempts to use FU when none available
system.cpu.iq.fu_full::InstPrefetch                 0      0.00%    100.00% # attempts to use FU when none available
system.cpu.iq.int_alu_accesses               21952274                       # Number of integer alu accesses
system.cpu.iq.int_inst_queue_reads           98935588                       # Number of integer instruction queue reads
system.cpu.iq.int_inst_queue_wakeup_accesses     22503589                       # Number of integer instruction queue wakeup accesses
system.cpu.iq.int_inst_queue_writes          22641101                       # Number of integer instruction queue writes
system.cpu.iq.iqInstsAdded                   73554123                       # Number of instructions added to the IQ (excludes non-spec)
system.cpu.iq.iqInstsIssued                  73547021                       # Number of instructions issued
system.cpu.iq.iqNonSpecInstsAdded                 159                       # Number of non-speculative instructions added to the IQ
system.cpu.iq.iqSquashedInstsExamined          163393                       # Number of squashed instructions iterated over during squash; mainly for profiling
system.cpu.iq.iqSquashedInstsIssued               148                       # Number of squashed instructions issued
system.cpu.iq.iqSquashedNonSpecRemoved            123                       # Number of squashed non-spec instructions that were removed
system.cpu.iq.iqSquashedOperandsExamined       162351                       # Number of squashed operands that are examined and possibly removed from graph
system.cpu.iq.issued_per_cycle::samples      53818173                       # Number of insts issued each cycle
system.cpu.iq.issued_per_cycle::mean         1.366583                       # Number of insts issued each cycle
system.cpu.iq.issued_per_cycle::stdev        2.312008                       # Number of insts issued each cycle
system.cpu.iq.issued_per_cycle::underflows            0      0.00%      0.00% # Number of insts issued each cycle
system.cpu.iq.issued_per_cycle::0            35010767     65.05%     65.05% # Number of insts issued each cycle
system.cpu.iq.issued_per_cycle::1             5037973      9.36%     74.41% # Number of insts issued each cycle
system.cpu.iq.issued_per_cycle::2             1310470      2.43%     76.85% # Number of insts issued each cycle
system.cpu.iq.issued_per_cycle::3             1063500      1.98%     78.83% # Number of insts issued each cycle
system.cpu.iq.issued_per_cycle::4             4369854      8.12%     86.95% # Number of insts issued each cycle
system.cpu.iq.issued_per_cycle::5             1263031      2.35%     89.29% # Number of insts issued each cycle
system.cpu.iq.issued_per_cycle::6             3000367      5.58%     94.87% # Number of insts issued each cycle
system.cpu.iq.issued_per_cycle::7             1196853      2.22%     97.09% # Number of insts issued each cycle
system.cpu.iq.issued_per_cycle::8             1565358      2.91%    100.00% # Number of insts issued each cycle
system.cpu.iq.issued_per_cycle::overflows            0      0.00%    100.00% # Number of insts issued each cycle
system.cpu.iq.issued_per_cycle::min_value            0                       # Number of insts issued each cycle
system.cpu.iq.issued_per_cycle::max_value            8                       # Number of insts issued each cycle
system.cpu.iq.issued_per_cycle::total        53818173                       # Number of insts issued each cycle
system.cpu.iq.rate                           1.365347                       # Inst issue rate
system.cpu.iq.vec_alu_accesses                      0                       # Number of vector alu accesses
system.cpu.iq.vec_inst_queue_reads                  0                       # Number of vector instruction queue reads
system.cpu.iq.vec_inst_queue_wakeup_accesses            0                       # Number of vector instruction queue wakeup accesses
system.cpu.iq.vec_inst_queue_writes                 0                       # Number of vector instruction queue writes
system.cpu.memDep0.conflictingLoads               180                       # Number of conflicting loads.
system.cpu.memDep0.conflictingStores              136                       # Number of conflicting stores.
system.cpu.memDep0.insertedLoads              5916797                       # Number of loads inserted to the mem dependence unit.
system.cpu.memDep0.insertedStores              586782                       # Number of stores inserted to the mem dependence unit.
system.cpu.misc_regfile_reads                13006552                       # number of misc regfile reads
system.cpu.numCycles                         53866920                       # number of cpu cycles simulated
system.cpu.numWorkItemsCompleted                    0                       # number of work items this cpu completed
system.cpu.numWorkItemsStarted                      0                       # number of work items this cpu started
system.cpu.timesIdled                             711                       # Number of times that the entire CPU went into an idle state and unscheduled itself
system.cpu.workload.numSyscalls                    16                       # Number of system calls
system.l2bus.snoop_filter.hit_multi_requests            6                       # Number of requests hitting in the snoop filter with multiple (>1) holders of the requested data.
system.l2bus.snoop_filter.hit_multi_snoops            0                       # Number of snoops hitting in the snoop filter with multiple (>1) holders of the requested data.
system.l2bus.snoop_filter.hit_single_requests       743949                       # Number of requests hitting in the snoop filter with a single holder of the requested data.
system.l2bus.snoop_filter.hit_single_snoops         7789                       # Number of snoops hitting in the snoop filter with a single holder of the requested data.
system.l2bus.snoop_filter.tot_requests        1489178                       # Total number of requests made to the snoop filter.
system.l2bus.snoop_filter.tot_snoops             7789                       # Total number of snoops made to the snoop filter.
system.membus.snoop_filter.hit_multi_requests            0                       # Number of requests hitting in the snoop filter with multiple (>1) holders of the requested data.
system.membus.snoop_filter.hit_multi_snoops            0                       # Number of snoops hitting in the snoop filter with multiple (>1) holders of the requested data.
system.membus.snoop_filter.hit_single_requests       728638                       # Number of requests hitting in the snoop filter with a single holder of the requested data.
system.membus.snoop_filter.hit_single_snoops            0                       # Number of snoops hitting in the snoop filter with a single holder of the requested data.
system.membus.snoop_filter.tot_requests       1473759                       # Total number of requests made to the snoop filter.
system.membus.snoop_filter.tot_snoops               0                       # Total number of snoops made to the snoop filter.
system.clk_domain.clock                          1000                       # Clock period in ticks
system.clk_domain.voltage_domain.voltage            1                       # Voltage in Volts
system.cpu.branchPred.lookups                 3590575                       # Number of BP lookups
system.cpu.branchPred.condPredicted           3585475                       # Number of conditional branches predicted
system.cpu.branchPred.condIncorrect              1585                       # Number of conditional branches incorrect
system.cpu.branchPred.BTBLookups              3580132                       # Number of BTB lookups
system.cpu.branchPred.BTBHits                 3578482                       # Number of BTB hits
system.cpu.branchPred.BTBHitPct             99.953912                       # BTB Hit Percentage
system.cpu.branchPred.RASUsed                    1795                       # Number of times the RAS was used to get a target.
system.cpu.branchPred.RASIncorrect                 12                       # Number of incorrect RAS predictions.
system.cpu.branchPred.indirectLookups            1002                       # Number of indirect predictor lookups.
system.cpu.branchPred.indirectHits                317                       # Number of indirect target hits.
system.cpu.branchPred.indirectMisses              685                       # Number of indirect misses.
system.cpu.branchPred.indirectMispredicted          190                       # Number of mispredicted indirect branches.
system.cpu.commit.commitSquashedInsts          161974                       # The number of squashed insts skipped by commit
system.cpu.commit.commitNonSpecStalls              36                       # The number of times commit has been forced to stall to communicate backwards
system.cpu.commit.branchMispredicts              1233                       # The number of times a branch was mispredicted
system.cpu.commit.numCommittedDist::samples     53796949                       # Number of insts commited each cycle
system.cpu.commit.numCommittedDist::mean     1.364220                       # Number of insts commited each cycle
system.cpu.commit.numCommittedDist::stdev     2.752332                       # Number of insts commited each cycle
system.cpu.commit.numCommittedDist::underflows            0      0.00%      0.00% # Number of insts commited each cycle
system.cpu.commit.numCommittedDist::0        40939880     76.10%     76.10% # Number of insts commited each cycle
system.cpu.commit.numCommittedDist::1         1242985      2.31%     78.41% # Number of insts commited each cycle
system.cpu.commit.numCommittedDist::2         1669459      3.10%     81.51% # Number of insts commited each cycle
system.cpu.commit.numCommittedDist::3          328248      0.61%     82.12% # Number of insts commited each cycle
system.cpu.commit.numCommittedDist::4          773721      1.44%     83.56% # Number of insts commited each cycle
system.cpu.commit.numCommittedDist::5          980392      1.82%     85.39% # Number of insts commited each cycle
system.cpu.commit.numCommittedDist::6         1381347      2.57%     87.95% # Number of insts commited each cycle
system.cpu.commit.numCommittedDist::7          308026      0.57%     88.53% # Number of insts commited each cycle
system.cpu.commit.numCommittedDist::8         6172891     11.47%    100.00% # Number of insts commited each cycle
system.cpu.commit.numCommittedDist::overflows            0      0.00%    100.00% # Number of insts commited each cycle
system.cpu.commit.numCommittedDist::min_value            0                       # Number of insts commited each cycle
system.cpu.commit.numCommittedDist::max_value            8                       # Number of insts commited each cycle
system.cpu.commit.numCommittedDist::total     53796949                       # Number of insts commited each cycle
system.cpu.commit.instsCommitted             35876276                       # Number of instructions committed
system.cpu.commit.opsCommitted               73390883                       # Number of ops (including micro ops) committed
system.cpu.commit.memRefs                     6463406                       # Number of memory references committed
system.cpu.commit.loads                       5913234                       # Number of loads committed
system.cpu.commit.amos                              0                       # Number of atomic instructions committed
system.cpu.commit.membars                          24                       # Number of memory barriers committed
system.cpu.commit.branches                    3561142                       # Number of branches committed
system.cpu.commit.vector                            0                       # Number of committed Vector instructions.
system.cpu.commit.floating                   51004963                       # Number of committed floating point instructions.
system.cpu.commit.integer                    28168705                       # Number of committed integer instructions.
system.cpu.commit.functionCalls                  1454                       # Number of function calls committed.
system.cpu.commit.committedInstType_0::No_OpClass       657309      0.90%      0.90% # Class of committed instruction
system.cpu.commit.committedInstType_0::IntAlu     34156657     46.54%     47.44% # Class of committed instruction
system.cpu.commit.committedInstType_0::IntMult           15      0.00%     47.44% # Class of committed instruction
system.cpu.commit.committedInstType_0::IntDiv           28      0.00%     47.44% # Class of committed instruction
system.cpu.commit.committedInstType_0::FloatAdd       327782      0.45%     47.88% # Class of committed instruction
system.cpu.commit.committedInstType_0::FloatCmp            0      0.00%     47.88% # Class of committed instruction
system.cpu.commit.committedInstType_0::FloatCvt            0      0.00%     47.88% # Class of committed instruction
system.cpu.commit.committedInstType_0::FloatMult            0      0.00%     47.88% # Class of committed instruction
system.cpu.commit.committedInstType_0::FloatMultAcc            0      0.00%     47.88% # Class of committed instruction
system.cpu.commit.committedInstType_0::FloatDiv            0      0.00%     47.88% # Class of committed instruction
system.cpu.commit.committedInstType_0::FloatMisc            0      0.00%     47.88% # Class of committed instruction
system.cpu.commit.committedInstType_0::FloatSqrt            0      0.00%     47.88% # Class of committed instruction
system.cpu.commit.committedInstType_0::SimdAdd     11796336     16.07%     63.96% # Class of committed instruction
system.cpu.commit.committedInstType_0::SimdAddAcc            0      0.00%     63.96% # Class of committed instruction
system.cpu.commit.committedInstType_0::SimdAlu       328333      0.45%     64.40% # Class of committed instruction
system.cpu.commit.committedInstType_0::SimdCmp           12      0.00%     64.40% # Class of committed instruction
system.cpu.commit.committedInstType_0::SimdCvt      5898424      8.04%     72.44% # Class of committed instruction
system.cpu.commit.committedInstType_0::SimdMisc     12779646     17.41%     89.85% # Class of committed instruction
system.cpu.commit.committedInstType_0::SimdMult            0      0.00%     89.85% # Class of committed instruction
system.cpu.commit.committedInstType_0::SimdMultAcc            0      0.00%     89.85% # Class of committed instruction
system.cpu.commit.committedInstType_0::SimdShift       982935      1.34%     91.19% # Class of committed instruction
system.cpu.commit.committedInstType_0::SimdShiftAcc            0      0.00%     91.19% # Class of committed instruction
system.cpu.commit.committedInstType_0::SimdDiv            0      0.00%     91.19% # Class of committed instruction
system.cpu.commit.committedInstType_0::SimdSqrt            0      0.00%     91.19% # Class of committed instruction
system.cpu.commit.committedInstType_0::SimdFloatAdd            0      0.00%     91.19% # Class of committed instruction
system.cpu.commit.committedInstType_0::SimdFloatAlu            0      0.00%     91.19% # Class of committed instruction
system.cpu.commit.committedInstType_0::SimdFloatCmp            0      0.00%     91.19% # Class of committed instruction
system.cpu.commit.committedInstType_0::SimdFloatCvt            0      0.00%     91.19% # Class of committed instruction
system.cpu.commit.committedInstType_0::SimdFloatDiv            0      0.00%     91.19% # Class of committed instruction
system.cpu.commit.committedInstType_0::SimdFloatMisc            0      0.00%     91.19% # Class of committed instruction
system.cpu.commit.committedInstType_0::SimdFloatMult            0      0.00%     91.19% # Class of committed instruction
system.cpu.commit.committedInstType_0::SimdFloatMultAcc            0      0.00%     91.19% # Class of committed instruction
system.cpu.commit.committedInstType_0::SimdFloatSqrt            0      0.00%     91.19% # Class of committed instruction
system.cpu.commit.committedInstType_0::SimdReduceAdd            0      0.00%     91.19% # Class of committed instruction
system.cpu.commit.committedInstType_0::SimdReduceAlu            0      0.00%     91.19% # Class of committed instruction
system.cpu.commit.committedInstType_0::SimdReduceCmp            0      0.00%     91.19% # Class of committed instruction
system.cpu.commit.committedInstType_0::SimdFloatReduceAdd            0      0.00%     91.19% # Class of committed instruction
system.cpu.commit.committedInstType_0::SimdFloatReduceCmp            0      0.00%     91.19% # Class of committed instruction
system.cpu.commit.committedInstType_0::SimdAes            0      0.00%     91.19% # Class of committed instruction
system.cpu.commit.committedInstType_0::SimdAesMix            0      0.00%     91.19% # Class of committed instruction
system.cpu.commit.committedInstType_0::SimdSha1Hash            0      0.00%     91.19% # Class of committed instruction
system.cpu.commit.committedInstType_0::SimdSha1Hash2            0      0.00%     91.19% # Class of committed instruction
system.cpu.commit.committedInstType_0::SimdSha256Hash            0      0.00%     91.19% # Class of committed instruction
system.cpu.commit.committedInstType_0::SimdSha256Hash2            0      0.00%     91.19% # Class of committed instruction
system.cpu.commit.committedInstType_0::SimdShaSigma2            0      0.00%     91.19% # Class of committed instruction
system.cpu.commit.committedInstType_0::SimdShaSigma3            0      0.00%     91.19% # Class of committed instruction
system.cpu.commit.committedInstType_0::SimdPredAlu            0      0.00%     91.19% # Class of committed instruction
system.cpu.commit.committedInstType_0::MemRead       342349      0.47%     91.66% # Class of committed instruction
system.cpu.commit.committedInstType_0::MemWrite         8948      0.01%     91.67% # Class of committed instruction
system.cpu.commit.committedInstType_0::FloatMemRead      5570885      7.59%     99.26% # Class of committed instruction
system.cpu.commit.committedInstType_0::FloatMemWrite       541224      0.74%    100.00% # Class of committed instruction
system.cpu.commit.committedInstType_0::IprAccess            0      0.00%    100.00% # Class of committed instruction
system.cpu.commit.committedInstType_0::InstPrefetch            0      0.00%    100.00% # Class of committed instruction
system.cpu.commit.committedInstType_0::total     73390883                       # Class of committed instruction
system.cpu.commit.commitEligibleSamples       6172891                       # number cycles where commit BW limit reached
system.cpu.dcache.demand_hits::.cpu.data      1325745                       # number of demand (read+write) hits
system.cpu.dcache.demand_hits::total          1325745                       # number of demand (read+write) hits
system.cpu.dcache.overall_hits::.cpu.data      1325745                       # number of overall hits
system.cpu.dcache.overall_hits::total         1325745                       # number of overall hits
system.cpu.dcache.demand_misses::.cpu.data      5136568                       # number of demand (read+write) misses
system.cpu.dcache.demand_misses::total        5136568                       # number of demand (read+write) misses
system.cpu.dcache.overall_misses::.cpu.data      5136568                       # number of overall misses
system.cpu.dcache.overall_misses::total       5136568                       # number of overall misses
system.cpu.dcache.demand_miss_latency::.cpu.data 348807747999                       # number of demand (read+write) miss cycles
system.cpu.dcache.demand_miss_latency::total 348807747999                       # number of demand (read+write) miss cycles
system.cpu.dcache.overall_miss_latency::.cpu.data 348807747999                       # number of overall miss cycles
system.cpu.dcache.overall_miss_latency::total 348807747999                       # number of overall miss cycles
system.cpu.dcache.demand_accesses::.cpu.data      6462313                       # number of demand (read+write) accesses
system.cpu.dcache.demand_accesses::total      6462313                       # number of demand (read+write) accesses
system.cpu.dcache.overall_accesses::.cpu.data      6462313                       # number of overall (read+write) accesses
system.cpu.dcache.overall_accesses::total      6462313                       # number of overall (read+write) accesses
system.cpu.dcache.demand_miss_rate::.cpu.data     0.794850                       # miss rate for demand accesses
system.cpu.dcache.demand_miss_rate::total     0.794850                       # miss rate for demand accesses
system.cpu.dcache.overall_miss_rate::.cpu.data     0.794850                       # miss rate for overall accesses
system.cpu.dcache.overall_miss_rate::total     0.794850                       # miss rate for overall accesses
system.cpu.dcache.demand_avg_miss_latency::.cpu.data 67906.771214                       # average overall miss latency
system.cpu.dcache.demand_avg_miss_latency::total 67906.771214                       # average overall miss latency
system.cpu.dcache.overall_avg_miss_latency::.cpu.data 67906.771214                       # average overall miss latency
system.cpu.dcache.overall_avg_miss_latency::total 67906.771214                       # average overall miss latency
system.cpu.dcache.blocked_cycles::no_mshrs         1138                       # number of cycles access was blocked
system.cpu.dcache.blocked_cycles::no_targets            0                       # number of cycles access was blocked
system.cpu.dcache.blocked::no_mshrs                33                       # number of cycles access was blocked
system.cpu.dcache.blocked::no_targets               0                       # number of cycles access was blocked
system.cpu.dcache.avg_blocked_cycles::no_mshrs    34.484848                       # average number of cycles each access was blocked
system.cpu.dcache.avg_blocked_cycles::no_targets          nan                       # average number of cycles each access was blocked
system.cpu.dcache.writebacks::.writebacks        67904                       # number of writebacks
system.cpu.dcache.writebacks::total             67904                       # number of writebacks
system.cpu.dcache.demand_mshr_hits::.cpu.data      4392532                       # number of demand (read+write) MSHR hits
system.cpu.dcache.demand_mshr_hits::total      4392532                       # number of demand (read+write) MSHR hits
system.cpu.dcache.overall_mshr_hits::.cpu.data      4392532                       # number of overall MSHR hits
system.cpu.dcache.overall_mshr_hits::total      4392532                       # number of overall MSHR hits
system.cpu.dcache.demand_mshr_misses::.cpu.data       744036                       # number of demand (read+write) MSHR misses
system.cpu.dcache.demand_mshr_misses::total       744036                       # number of demand (read+write) MSHR misses
system.cpu.dcache.overall_mshr_misses::.cpu.data       744036                       # number of overall MSHR misses
system.cpu.dcache.overall_mshr_misses::total       744036                       # number of overall MSHR misses
system.cpu.dcache.demand_mshr_miss_latency::.cpu.data  73523865999                       # number of demand (read+write) MSHR miss cycles
system.cpu.dcache.demand_mshr_miss_latency::total  73523865999                       # number of demand (read+write) MSHR miss cycles
system.cpu.dcache.overall_mshr_miss_latency::.cpu.data  73523865999                       # number of overall MSHR miss cycles
system.cpu.dcache.overall_mshr_miss_latency::total  73523865999                       # number of overall MSHR miss cycles
system.cpu.dcache.demand_mshr_miss_rate::.cpu.data     0.115135                       # mshr miss rate for demand accesses
system.cpu.dcache.demand_mshr_miss_rate::total     0.115135                       # mshr miss rate for demand accesses
system.cpu.dcache.overall_mshr_miss_rate::.cpu.data     0.115135                       # mshr miss rate for overall accesses
system.cpu.dcache.overall_mshr_miss_rate::total     0.115135                       # mshr miss rate for overall accesses
system.cpu.dcache.demand_avg_mshr_miss_latency::.cpu.data 98817.619039                       # average overall mshr miss latency
system.cpu.dcache.demand_avg_mshr_miss_latency::total 98817.619039                       # average overall mshr miss latency
system.cpu.dcache.overall_avg_mshr_miss_latency::.cpu.data 98817.619039                       # average overall mshr miss latency
system.cpu.dcache.overall_avg_mshr_miss_latency::total 98817.619039                       # average overall mshr miss latency
system.cpu.dcache.replacements                 743010                       # number of replacements
system.cpu.dcache.ReadReq_hits::.cpu.data       843449                       # number of ReadReq hits
system.cpu.dcache.ReadReq_hits::total          843449                       # number of ReadReq hits
system.cpu.dcache.ReadReq_misses::.cpu.data      5068685                       # number of ReadReq misses
system.cpu.dcache.ReadReq_misses::total       5068685                       # number of ReadReq misses
system.cpu.dcache.ReadReq_miss_latency::.cpu.data 341730060000                       # number of ReadReq miss cycles
system.cpu.dcache.ReadReq_miss_latency::total 341730060000                       # number of ReadReq miss cycles
system.cpu.dcache.ReadReq_accesses::.cpu.data      5912134                       # number of ReadReq accesses(hits+misses)
system.cpu.dcache.ReadReq_accesses::total      5912134                       # number of ReadReq accesses(hits+misses)
system.cpu.dcache.ReadReq_miss_rate::.cpu.data     0.857336                       # miss rate for ReadReq accesses
system.cpu.dcache.ReadReq_miss_rate::total     0.857336                       # miss rate for ReadReq accesses
system.cpu.dcache.ReadReq_avg_miss_latency::.cpu.data 67419.865310                       # average ReadReq miss latency
system.cpu.dcache.ReadReq_avg_miss_latency::total 67419.865310                       # average ReadReq miss latency
system.cpu.dcache.ReadReq_mshr_hits::.cpu.data      4392529                       # number of ReadReq MSHR hits
system.cpu.dcache.ReadReq_mshr_hits::total      4392529                       # number of ReadReq MSHR hits
system.cpu.dcache.ReadReq_mshr_misses::.cpu.data       676156                       # number of ReadReq MSHR misses
system.cpu.dcache.ReadReq_mshr_misses::total       676156                       # number of ReadReq MSHR misses
system.cpu.dcache.ReadReq_mshr_miss_latency::.cpu.data  66582204000                       # number of ReadReq MSHR miss cycles
system.cpu.dcache.ReadReq_mshr_miss_latency::total  66582204000                       # number of ReadReq MSHR miss cycles
system.cpu.dcache.ReadReq_mshr_miss_rate::.cpu.data     0.114368                       # mshr miss rate for ReadReq accesses
system.cpu.dcache.ReadReq_mshr_miss_rate::total     0.114368                       # mshr miss rate for ReadReq accesses
system.cpu.dcache.ReadReq_avg_mshr_miss_latency::.cpu.data 98471.660386                       # average ReadReq mshr miss latency
system.cpu.dcache.ReadReq_avg_mshr_miss_latency::total 98471.660386                       # average ReadReq mshr miss latency
system.cpu.dcache.WriteReq_hits::.cpu.data       482296                       # number of WriteReq hits
system.cpu.dcache.WriteReq_hits::total         482296                       # number of WriteReq hits
system.cpu.dcache.WriteReq_misses::.cpu.data        67883                       # number of WriteReq misses
system.cpu.dcache.WriteReq_misses::total        67883                       # number of WriteReq misses
system.cpu.dcache.WriteReq_miss_latency::.cpu.data   7077687999                       # number of WriteReq miss cycles
system.cpu.dcache.WriteReq_miss_latency::total   7077687999                       # number of WriteReq miss cycles
system.cpu.dcache.WriteReq_accesses::.cpu.data       550179                       # number of WriteReq accesses(hits+misses)
system.cpu.dcache.WriteReq_accesses::total       550179                       # number of WriteReq accesses(hits+misses)
system.cpu.dcache.WriteReq_miss_rate::.cpu.data     0.123383                       # miss rate for WriteReq accesses
system.cpu.dcache.WriteReq_miss_rate::total     0.123383                       # miss rate for WriteReq accesses
system.cpu.dcache.WriteReq_avg_miss_latency::.cpu.data 104263.040806                       # average WriteReq miss latency
system.cpu.dcache.WriteReq_avg_miss_latency::total 104263.040806                       # average WriteReq miss latency
system.cpu.dcache.WriteReq_mshr_hits::.cpu.data            3                       # number of WriteReq MSHR hits
system.cpu.dcache.WriteReq_mshr_hits::total            3                       # number of WriteReq MSHR hits
system.cpu.dcache.WriteReq_mshr_misses::.cpu.data        67880                       # number of WriteReq MSHR misses
system.cpu.dcache.WriteReq_mshr_misses::total        67880                       # number of WriteReq MSHR misses
system.cpu.dcache.WriteReq_mshr_miss_latency::.cpu.data   6941661999                       # number of WriteReq MSHR miss cycles
system.cpu.dcache.WriteReq_mshr_miss_latency::total   6941661999                       # number of WriteReq MSHR miss cycles
system.cpu.dcache.WriteReq_mshr_miss_rate::.cpu.data     0.123378                       # mshr miss rate for WriteReq accesses
system.cpu.dcache.WriteReq_mshr_miss_rate::total     0.123378                       # mshr miss rate for WriteReq accesses
system.cpu.dcache.WriteReq_avg_mshr_miss_latency::.cpu.data 102263.730097                       # average WriteReq mshr miss latency
system.cpu.dcache.WriteReq_avg_mshr_miss_latency::total 102263.730097                       # average WriteReq mshr miss latency
system.cpu.dcache.power_state.pwrStateResidencyTicks::UNDEFINED  53866919000                       # Cumulative time (in ticks) in various power states
system.cpu.dcache.tags.tagsinuse          1021.886185                       # Cycle average of tags in use
system.cpu.dcache.tags.total_refs             2069781                       # Total number of references to valid blocks.
system.cpu.dcache.tags.sampled_refs            744034                       # Sample count of references to valid blocks.
system.cpu.dcache.tags.avg_refs              2.781837                       # Average number of references to valid blocks.
system.cpu.dcache.tags.warmup_cycle            222000                       # Cycle when the warmup percentage was hit.
system.cpu.dcache.tags.occ_blocks::.cpu.data  1021.886185                       # Average occupied blocks per requestor
system.cpu.dcache.tags.occ_percent::.cpu.data     0.997936                       # Average percentage of cache occupancy
system.cpu.dcache.tags.occ_percent::total     0.997936                       # Average percentage of cache occupancy
system.cpu.dcache.tags.occ_task_id_blocks::1024         1024                       # Occupied blocks per task id
system.cpu.dcache.tags.age_task_id_blocks_1024::0           49                       # Occupied blocks per task id
system.cpu.dcache.tags.age_task_id_blocks_1024::1          415                       # Occupied blocks per task id
system.cpu.dcache.tags.age_task_id_blocks_1024::2          560                       # Occupied blocks per task id
system.cpu.dcache.tags.occ_task_id_percent::1024            1                       # Percentage of cache occupancy per task id
system.cpu.dcache.tags.tag_accesses          13668660                       # Number of tag accesses
system.cpu.dcache.tags.data_accesses         13668660                       # Number of data accesses
system.cpu.dcache.tags.power_state.pwrStateResidencyTicks::UNDEFINED  53866919000                       # Cumulative time (in ticks) in various power states
system.cpu.decode.idleCycles                  1534476                       # Number of cycles decode is idle
system.cpu.decode.blockedCycles              42236896                       # Number of cycles decode is blocked
system.cpu.decode.runCycles                   7257969                       # Number of cycles decode is running
system.cpu.decode.unblockCycles               2786492                       # Number of cycles decode is unblocking
system.cpu.decode.squashCycles                   2340                       # Number of cycles decode is squashing
system.cpu.decode.branchResolved              3573481                       # Number of times decode resolved a  branch
system.cpu.decode.branchMispred                   592                       # Number of times decode detected a branch misprediction
system.cpu.decode.decodedInsts               73578620                       # Number of instructions handled by decode
system.cpu.decode.squashedInsts                  2832                       # Number of squashed instructions handled by decode
system.cpu.dtb.rdAccesses                     5915663                       # TLB accesses on read requests
system.cpu.dtb.wrAccesses                      585850                       # TLB accesses on write requests
system.cpu.dtb.rdMisses                         10754                       # TLB misses on read requests
system.cpu.dtb.wrMisses                         33785                       # TLB misses on write requests
system.cpu.dtb.walker.power_state.pwrStateResidencyTicks::UNDEFINED  53866919000                       # Cumulative time (in ticks) in various power states
system.cpu.fetch.icacheStallCycles            6518049                       # Number of cycles fetch is stalled on an Icache miss
system.cpu.fetch.insts                       35996766                       # Number of instructions fetch has processed
system.cpu.fetch.branches                     3590575                       # Number of branches that fetch encountered
system.cpu.fetch.predictedBranches            3580594                       # Number of branches that fetch has predicted taken
system.cpu.fetch.cycles                      47295484                       # Number of cycles fetch has run and was not squashing or blocked
system.cpu.fetch.squashCycles                    5848                       # Number of cycles fetch has spent squashing
system.cpu.fetch.miscStallCycles                  249                       # Number of cycles fetch has spent waiting on interrupts,or bad addresses, or out of MSHRs
system.cpu.fetch.pendingTrapStallCycles          1465                       # Number of stall cycles due to pending traps
system.cpu.fetch.pendingQuiesceStallCycles            2                       # Number of stall cycles due to pending quiesce instructions
system.cpu.fetch.cacheLines                   6483979                       # Number of cache lines fetched
system.cpu.fetch.icacheSquashes                   773                       # Number of outstanding Icache misses that were squashed
system.cpu.fetch.nisnDist::samples           53818173                       # Number of instructions fetched each cycle (Total)
system.cpu.fetch.nisnDist::mean              1.368154                       # Number of instructions fetched each cycle (Total)
system.cpu.fetch.nisnDist::stdev             2.736289                       # Number of instructions fetched each cycle (Total)
system.cpu.fetch.nisnDist::underflows               0      0.00%      0.00% # Number of instructions fetched each cycle (Total)
system.cpu.fetch.nisnDist::0                 40447603     75.16%     75.16% # Number of instructions fetched each cycle (Total)
system.cpu.fetch.nisnDist::1                    28108      0.05%     75.21% # Number of instructions fetched each cycle (Total)
system.cpu.fetch.nisnDist::2                  4040773      7.51%     82.72% # Number of instructions fetched each cycle (Total)
system.cpu.fetch.nisnDist::3                    21533      0.04%     82.76% # Number of instructions fetched each cycle (Total)
system.cpu.fetch.nisnDist::4                  2078872      3.86%     86.62% # Number of instructions fetched each cycle (Total)
system.cpu.fetch.nisnDist::5                    13815      0.03%     86.64% # Number of instructions fetched each cycle (Total)
system.cpu.fetch.nisnDist::6                    53040      0.10%     86.74% # Number of instructions fetched each cycle (Total)
system.cpu.fetch.nisnDist::7                   320959      0.60%     87.34% # Number of instructions fetched each cycle (Total)
system.cpu.fetch.nisnDist::8                  6813470     12.66%    100.00% # Number of instructions fetched each cycle (Total)
system.cpu.fetch.nisnDist::overflows                0      0.00%    100.00% # Number of instructions fetched each cycle (Total)
system.cpu.fetch.nisnDist::min_value                0                       # Number of instructions fetched each cycle (Total)
system.cpu.fetch.nisnDist::max_value                8                       # Number of instructions fetched each cycle (Total)
system.cpu.fetch.nisnDist::total             53818173                       # Number of instructions fetched each cycle (Total)
system.cpu.fetch.branchRate                  0.066656                       # Number of branch fetches per cycle
system.cpu.fetch.rate                        0.668254                       # Number of inst fetches per cycle
system.cpu.icache.demand_hits::.cpu.inst      6482531                       # number of demand (read+write) hits
system.cpu.icache.demand_hits::total          6482531                       # number of demand (read+write) hits
system.cpu.icache.overall_hits::.cpu.inst      6482531                       # number of overall hits
system.cpu.icache.overall_hits::total         6482531                       # number of overall hits
system.cpu.icache.demand_misses::.cpu.inst         1448                       # number of demand (read+write) misses
system.cpu.icache.demand_misses::total           1448                       # number of demand (read+write) misses
system.cpu.icache.overall_misses::.cpu.inst         1448                       # number of overall misses
system.cpu.icache.overall_misses::total          1448                       # number of overall misses
system.cpu.icache.demand_miss_latency::.cpu.inst    135511000                       # number of demand (read+write) miss cycles
system.cpu.icache.demand_miss_latency::total    135511000                       # number of demand (read+write) miss cycles
system.cpu.icache.overall_miss_latency::.cpu.inst    135511000                       # number of overall miss cycles
system.cpu.icache.overall_miss_latency::total    135511000                       # number of overall miss cycles
system.cpu.icache.demand_accesses::.cpu.inst      6483979                       # number of demand (read+write) accesses
system.cpu.icache.demand_accesses::total      6483979                       # number of demand (read+write) accesses
system.cpu.icache.overall_accesses::.cpu.inst      6483979                       # number of overall (read+write) accesses
system.cpu.icache.overall_accesses::total      6483979                       # number of overall (read+write) accesses
system.cpu.icache.demand_miss_rate::.cpu.inst     0.000223                       # miss rate for demand accesses
system.cpu.icache.demand_miss_rate::total     0.000223                       # miss rate for demand accesses
system.cpu.icache.overall_miss_rate::.cpu.inst     0.000223                       # miss rate for overall accesses
system.cpu.icache.overall_miss_rate::total     0.000223                       # miss rate for overall accesses
system.cpu.icache.demand_avg_miss_latency::.cpu.inst 93584.944751                       # average overall miss latency
system.cpu.icache.demand_avg_miss_latency::total 93584.944751                       # average overall miss latency
system.cpu.icache.overall_avg_miss_latency::.cpu.inst 93584.944751                       # average overall miss latency
system.cpu.icache.overall_avg_miss_latency::total 93584.944751                       # average overall miss latency
system.cpu.icache.blocked_cycles::no_mshrs          215                       # number of cycles access was blocked
system.cpu.icache.blocked_cycles::no_targets            0                       # number of cycles access was blocked
system.cpu.icache.blocked::no_mshrs                 3                       # number of cycles access was blocked
system.cpu.icache.blocked::no_targets               0                       # number of cycles access was blocked
system.cpu.icache.avg_blocked_cycles::no_mshrs    71.666667                       # average number of cycles each access was blocked
system.cpu.icache.avg_blocked_cycles::no_targets          nan                       # average number of cycles each access was blocked
system.cpu.icache.demand_mshr_hits::.cpu.inst          253                       # number of demand (read+write) MSHR hits
system.cpu.icache.demand_mshr_hits::total          253                       # number of demand (read+write) MSHR hits
system.cpu.icache.overall_mshr_hits::.cpu.inst          253                       # number of overall MSHR hits
system.cpu.icache.overall_mshr_hits::total          253                       # number of overall MSHR hits
system.cpu.icache.demand_mshr_misses::.cpu.inst         1195                       # number of demand (read+write) MSHR misses
system.cpu.icache.demand_mshr_misses::total         1195                       # number of demand (read+write) MSHR misses
system.cpu.icache.overall_mshr_misses::.cpu.inst         1195                       # number of overall MSHR misses
system.cpu.icache.overall_mshr_misses::total         1195                       # number of overall MSHR misses
system.cpu.icache.demand_mshr_miss_latency::.cpu.inst    114333000                       # number of demand (read+write) MSHR miss cycles
system.cpu.icache.demand_mshr_miss_latency::total    114333000                       # number of demand (read+write) MSHR miss cycles
system.cpu.icache.overall_mshr_miss_latency::.cpu.inst    114333000                       # number of overall MSHR miss cycles
system.cpu.icache.overall_mshr_miss_latency::total    114333000                       # number of overall MSHR miss cycles
system.cpu.icache.demand_mshr_miss_rate::.cpu.inst     0.000184                       # mshr miss rate for demand accesses
system.cpu.icache.demand_mshr_miss_rate::total     0.000184                       # mshr miss rate for demand accesses
system.cpu.icache.overall_mshr_miss_rate::.cpu.inst     0.000184                       # mshr miss rate for overall accesses
system.cpu.icache.overall_mshr_miss_rate::total     0.000184                       # mshr miss rate for overall accesses
system.cpu.icache.demand_avg_mshr_miss_latency::.cpu.inst 95676.150628                       # average overall mshr miss latency
system.cpu.icache.demand_avg_mshr_miss_latency::total 95676.150628                       # average overall mshr miss latency
system.cpu.icache.overall_avg_mshr_miss_latency::.cpu.inst 95676.150628                       # average overall mshr miss latency
system.cpu.icache.overall_avg_mshr_miss_latency::total 95676.150628                       # average overall mshr miss latency
system.cpu.icache.replacements                    937                       # number of replacements
system.cpu.icache.ReadReq_hits::.cpu.inst      6482531                       # number of ReadReq hits
system.cpu.icache.ReadReq_hits::total         6482531                       # number of ReadReq hits
system.cpu.icache.ReadReq_misses::.cpu.inst         1448                       # number of ReadReq misses
system.cpu.icache.ReadReq_misses::total          1448                       # number of ReadReq misses
system.cpu.icache.ReadReq_miss_latency::.cpu.inst    135511000                       # number of ReadReq miss cycles
system.cpu.icache.ReadReq_miss_latency::total    135511000                       # number of ReadReq miss cycles
system.cpu.icache.ReadReq_accesses::.cpu.inst      6483979                       # number of ReadReq accesses(hits+misses)
system.cpu.icache.ReadReq_accesses::total      6483979                       # number of ReadReq accesses(hits+misses)
system.cpu.icache.ReadReq_miss_rate::.cpu.inst     0.000223                       # miss rate for ReadReq accesses
system.cpu.icache.ReadReq_miss_rate::total     0.000223                       # miss rate for ReadReq accesses
system.cpu.icache.ReadReq_avg_miss_latency::.cpu.inst 93584.944751                       # average ReadReq miss latency
system.cpu.icache.ReadReq_avg_miss_latency::total 93584.944751                       # average ReadReq miss latency
system.cpu.icache.ReadReq_mshr_hits::.cpu.inst          253                       # number of ReadReq MSHR hits
system.cpu.icache.ReadReq_mshr_hits::total          253                       # number of ReadReq MSHR hits
system.cpu.icache.ReadReq_mshr_misses::.cpu.inst         1195                       # number of ReadReq MSHR misses
system.cpu.icache.ReadReq_mshr_misses::total         1195                       # number of ReadReq MSHR misses
system.cpu.icache.ReadReq_mshr_miss_latency::.cpu.inst    114333000                       # number of ReadReq MSHR miss cycles
system.cpu.icache.ReadReq_mshr_miss_latency::total    114333000                       # number of ReadReq MSHR miss cycles
system.cpu.icache.ReadReq_mshr_miss_rate::.cpu.inst     0.000184                       # mshr miss rate for ReadReq accesses
system.cpu.icache.ReadReq_mshr_miss_rate::total     0.000184                       # mshr miss rate for ReadReq accesses
system.cpu.icache.ReadReq_avg_mshr_miss_latency::.cpu.inst 95676.150628                       # average ReadReq mshr miss latency
system.cpu.icache.ReadReq_avg_mshr_miss_latency::total 95676.150628                       # average ReadReq mshr miss latency
system.cpu.icache.power_state.pwrStateResidencyTicks::UNDEFINED  53866919000                       # Cumulative time (in ticks) in various power states
system.cpu.icache.tags.tagsinuse           254.911172                       # Cycle average of tags in use
system.cpu.icache.tags.total_refs             6483725                       # Total number of references to valid blocks.
system.cpu.icache.tags.sampled_refs              1194                       # Sample count of references to valid blocks.
system.cpu.icache.tags.avg_refs           5430.255444                       # Average number of references to valid blocks.
system.cpu.icache.tags.warmup_cycle            107000                       # Cycle when the warmup percentage was hit.
system.cpu.icache.tags.occ_blocks::.cpu.inst   254.911172                       # Average occupied blocks per requestor
system.cpu.icache.tags.occ_percent::.cpu.inst     0.995747                       # Average percentage of cache occupancy
system.cpu.icache.tags.occ_percent::total     0.995747                       # Average percentage of cache occupancy
system.cpu.icache.tags.occ_task_id_blocks::1024          255                       # Occupied blocks per task id
system.cpu.icache.tags.age_task_id_blocks_1024::0           76                       # Occupied blocks per task id
system.cpu.icache.tags.age_task_id_blocks_1024::1           89                       # Occupied blocks per task id
system.cpu.icache.tags.age_task_id_blocks_1024::4           90                       # Occupied blocks per task id
system.cpu.icache.tags.occ_task_id_percent::1024     0.996094                       # Percentage of cache occupancy per task id
system.cpu.icache.tags.tag_accesses          12969152                       # Number of tag accesses
system.cpu.icache.tags.data_accesses         12969152                       # Number of data accesses
system.cpu.icache.tags.power_state.pwrStateResidencyTicks::UNDEFINED  53866919000                       # Cumulative time (in ticks) in various power states
system.cpu.interrupts.clk_domain.clock          16000                       # Clock period in ticks
system.cpu.itb.rdAccesses                           0                       # TLB accesses on read requests
system.cpu.itb.wrAccesses                     6484234                       # TLB accesses on write requests
system.cpu.itb.rdMisses                             0                       # TLB misses on read requests
system.cpu.itb.wrMisses                           385                       # TLB misses on write requests
system.cpu.itb.walker.power_state.pwrStateResidencyTicks::UNDEFINED  53866919000                       # Cumulative time (in ticks) in various power states
system.cpu.lsq0.forwLoads                        3417                       # Number of loads that had data forwarded from stores
system.cpu.lsq0.squashedLoads                    3563                       # Number of loads squashed
system.cpu.lsq0.ignoredResponses                    2                       # Number of memory responses ignored because the instruction is squashed
system.cpu.lsq0.memOrderViolation                  33                       # Number of memory ordering violations
system.cpu.lsq0.squashedStores                  36610                       # Number of stores squashed
system.cpu.lsq0.rescheduledLoads                    1                       # Number of loads that were rescheduled
system.cpu.lsq0.blockedByCache                     29                       # Number of times an access to memory failed due to the cache being blocked
system.cpu.power_state.pwrStateResidencyTicks::ON  53866919000                       # Cumulative time (in ticks) in various power states
system.cpu.rename.squashCycles                   2340                       # Number of cycles rename is squashing
system.cpu.rename.idleCycles                  2476150                       # Number of cycles rename is idle
system.cpu.rename.blockCycles                29205116                       # Number of cycles rename is blocking
system.cpu.rename.serializeStallCycles            443                       # count of cycles rename stalledfor serializing inst
system.cpu.rename.runCycles                   9010183                       # Number of cycles rename is running
system.cpu.rename.unblockCycles              13123941                       # Number of cycles rename is unblocking
system.cpu.rename.renamedInsts               73560000                       # Number of instructions processed by rename
system.cpu.rename.ROBFullEvents                    86                       # Number of times rename has blocked due to ROB full
system.cpu.rename.IQFullEvents                4597884                       # Number of times rename has blocked due to IQ full
system.cpu.rename.SQFullEvents                7590168                       # Number of times rename has blocked due to SQ full
system.cpu.rename.renamedOperands            83690381                       # Number of destination operands rename has renamed
system.cpu.rename.lookups                   173524323                       # Number of register rename lookups that rename has made
system.cpu.rename.intLookups                 35532765                       # Number of integer rename lookups
system.cpu.rename.fpLookups                 107075260                       # Number of floating rename lookups
system.cpu.rename.committedMaps              83503186                       # Number of HB maps that are committed
system.cpu.rename.undoneMaps                   187189                       # Number of HB maps that are undone due to squashing
system.cpu.rename.serializing                      17                       # count of serializing insts renamed
system.cpu.rename.tempSerializing                  18                       # count of temporary serializing insts renamed
system.cpu.rename.skidInsts                  15268229                       # count of insts added to the skid buffer
system.cpu.rob.reads                        121162901                       # The number of ROB reads
system.cpu.rob.writes                       147126965                       # The number of ROB writes
system.cpu.thread_0.numInsts                 35876276                       # Number of Instructions committed
system.cpu.thread_0.numOps                   73390883                       # Number of Ops committed
system.cpu.thread_0.numMemRefs                      0                       # Number of Memory References
system.l2bus.trans_dist::ReadResp              677350                       # Transaction distribution
system.l2bus.trans_dist::WritebackDirty        135803                       # Transaction distribution
system.l2bus.trans_dist::CleanEvict           1337551                       # Transaction distribution
system.l2bus.trans_dist::UpgradeReq                 2                       # Transaction distribution
system.l2bus.trans_dist::UpgradeResp                2                       # Transaction distribution
system.l2bus.trans_dist::ReadExReq              67878                       # Transaction distribution
system.l2bus.trans_dist::ReadExResp             67878                       # Transaction distribution
system.l2bus.trans_dist::ReadSharedReq         677351                       # Transaction distribution
system.l2bus.pkt_count_system.cpu.icache.mem_side_port::system.l2cache.cpu_side_port         3322                       # Packet count per connected requestor and responder (bytes)
system.l2bus.pkt_count_system.cpu.dcache.mem_side_port::system.l2cache.cpu_side_port      2231082                       # Packet count per connected requestor and responder (bytes)
system.l2bus.pkt_count::total                 2234404                       # Packet count per connected requestor and responder (bytes)
system.l2bus.pkt_size_system.cpu.icache.mem_side_port::system.l2cache.cpu_side_port        76160                       # Cumulative packet size per connected requestor and responder (bytes)
system.l2bus.pkt_size_system.cpu.dcache.mem_side_port::system.l2cache.cpu_side_port     51964032                       # Cumulative packet size per connected requestor and responder (bytes)
system.l2bus.pkt_size::total                 52040192                       # Cumulative packet size per connected requestor and responder (bytes)
system.l2bus.snoops                            729411                       # Total snoops (count)
system.l2bus.snoopTraffic                     4345792                       # Total snoop traffic (bytes)
system.l2bus.snoop_fanout::samples            1474638                       # Request fanout histogram
system.l2bus.snoop_fanout::mean              0.005287                       # Request fanout histogram
system.l2bus.snoop_fanout::stdev             0.072522                       # Request fanout histogram
system.l2bus.snoop_fanout::underflows               0      0.00%      0.00% # Request fanout histogram
system.l2bus.snoop_fanout::0                  1466841     99.47%     99.47% # Request fanout histogram
system.l2bus.snoop_fanout::1                     7797      0.53%    100.00% # Request fanout histogram
system.l2bus.snoop_fanout::2                        0      0.00%    100.00% # Request fanout histogram
system.l2bus.snoop_fanout::overflows                0      0.00%    100.00% # Request fanout histogram
system.l2bus.snoop_fanout::min_value                0                       # Request fanout histogram
system.l2bus.snoop_fanout::max_value                1                       # Request fanout histogram
system.l2bus.snoop_fanout::total              1474638                       # Request fanout histogram
system.l2bus.power_state.pwrStateResidencyTicks::UNDEFINED  53866919000                       # Cumulative time (in ticks) in various power states
system.l2bus.reqLayer0.occupancy           1624986000                       # Layer occupancy (ticks)
system.l2bus.reqLayer0.utilization                3.0                       # Layer utilization (%)
system.l2bus.respLayer0.occupancy             3582000                       # Layer occupancy (ticks)
system.l2bus.respLayer0.utilization               0.0                       # Layer utilization (%)
system.l2bus.respLayer1.occupancy          2232104000                       # Layer occupancy (ticks)
system.l2bus.respLayer1.utilization               4.1                       # Layer utilization (%)
system.l2cache.demand_hits::.cpu.inst              98                       # number of demand (read+write) hits
system.l2cache.demand_hits::.cpu.data               5                       # number of demand (read+write) hits
system.l2cache.demand_hits::total                 103                       # number of demand (read+write) hits
system.l2cache.overall_hits::.cpu.inst             98                       # number of overall hits
system.l2cache.overall_hits::.cpu.data              5                       # number of overall hits
system.l2cache.overall_hits::total                103                       # number of overall hits
system.l2cache.demand_misses::.cpu.inst          1093                       # number of demand (read+write) misses
system.l2cache.demand_misses::.cpu.data        744029                       # number of demand (read+write) misses
system.l2cache.demand_misses::total            745122                       # number of demand (read+write) misses
system.l2cache.overall_misses::.cpu.inst         1093                       # number of overall misses
system.l2cache.overall_misses::.cpu.data       744029                       # number of overall misses
system.l2cache.overall_misses::total           745122                       # number of overall misses
system.l2cache.demand_miss_latency::.cpu.inst    108672000                       # number of demand (read+write) miss cycles
system.l2cache.demand_miss_latency::.cpu.data  71291563000                       # number of demand (read+write) miss cycles
system.l2cache.demand_miss_latency::total  71400235000                       # number of demand (read+write) miss cycles
system.l2cache.overall_miss_latency::.cpu.inst    108672000                       # number of overall miss cycles
system.l2cache.overall_miss_latency::.cpu.data  71291563000                       # number of overall miss cycles
system.l2cache.overall_miss_latency::total  71400235000                       # number of overall miss cycles
system.l2cache.demand_accesses::.cpu.inst         1191                       # number of demand (read+write) accesses
system.l2cache.demand_accesses::.cpu.data       744034                       # number of demand (read+write) accesses
system.l2cache.demand_accesses::total          745225                       # number of demand (read+write) accesses
system.l2cache.overall_accesses::.cpu.inst         1191                       # number of overall (read+write) accesses
system.l2cache.overall_accesses::.cpu.data       744034                       # number of overall (read+write) accesses
system.l2cache.overall_accesses::total         745225                       # number of overall (read+write) accesses
system.l2cache.demand_miss_rate::.cpu.inst     0.917716                       # miss rate for demand accesses
system.l2cache.demand_miss_rate::.cpu.data     0.999993                       # miss rate for demand accesses
system.l2cache.demand_miss_rate::total       0.999862                       # miss rate for demand accesses
system.l2cache.overall_miss_rate::.cpu.inst     0.917716                       # miss rate for overall accesses
system.l2cache.overall_miss_rate::.cpu.data     0.999993                       # miss rate for overall accesses
system.l2cache.overall_miss_rate::total      0.999862                       # miss rate for overall accesses
system.l2cache.demand_avg_miss_latency::.cpu.inst 99425.434584                       # average overall miss latency
system.l2cache.demand_avg_miss_latency::.cpu.data 95818.258428                       # average overall miss latency
system.l2cache.demand_avg_miss_latency::total 95823.549701                       # average overall miss latency
system.l2cache.overall_avg_miss_latency::.cpu.inst 99425.434584                       # average overall miss latency
system.l2cache.overall_avg_miss_latency::.cpu.data 95818.258428                       # average overall miss latency
system.l2cache.overall_avg_miss_latency::total 95823.549701                       # average overall miss latency
system.l2cache.blocked_cycles::no_mshrs             0                       # number of cycles access was blocked
system.l2cache.blocked_cycles::no_targets            0                       # number of cycles access was blocked
system.l2cache.blocked::no_mshrs                    0                       # number of cycles access was blocked
system.l2cache.blocked::no_targets                  0                       # number of cycles access was blocked
system.l2cache.avg_blocked_cycles::no_mshrs          nan                       # average number of cycles each access was blocked
system.l2cache.avg_blocked_cycles::no_targets          nan                       # average number of cycles each access was blocked
[...]
system.mem_ctrl.requestorReadRate::.cpu.data 883610514.275004267693                       # Per-requestor bytes read from memory rate (Bytes/sec)
system.mem_ctrl.requestorWriteRate::.writebacks 80637246.024781927466                       # Per-requestor bytes write to memory rate (Bytes/sec)
system.mem_ctrl.requestorReadAccesses::.cpu.inst         1092                       # Per-requestor read serviced memory accesses
system.mem_ctrl.requestorReadAccesses::.cpu.data       744029                       # Per-requestor read serviced memory accesses
system.mem_ctrl.requestorWriteAccesses::.writebacks        67902                       # Per-requestor write serviced memory accesses
system.mem_ctrl.requestorReadTotalLat::.cpu.inst     30776000                       # Per-requestor read total memory access latency
system.mem_ctrl.requestorReadTotalLat::.cpu.data  18269919500                       # Per-requestor read total memory access latency
system.mem_ctrl.requestorWriteTotalLat::.writebacks 186408908500                       # Per-requestor write total memory access latency
system.mem_ctrl.requestorReadAvgLat::.cpu.inst     28183.15                       # Per-requestor read average memory access latency
system.mem_ctrl.requestorReadAvgLat::.cpu.data     24555.39                       # Per-requestor read average memory access latency
system.mem_ctrl.requestorWriteAvgLat::.writebacks   2745263.89                       # Per-requestor write average memory access latency
system.mem_ctrl.dram.bytes_read::.cpu.inst        69888                       # Number of bytes read from this memory
system.mem_ctrl.dram.bytes_read::.cpu.data     47617856                       # Number of bytes read from this memory
system.mem_ctrl.dram.bytes_read::total       47687744                       # Number of bytes read from this memory
system.mem_ctrl.dram.bytes_inst_read::.cpu.inst        69888                       # Number of instructions bytes read from this memory
system.mem_ctrl.dram.bytes_inst_read::total        69888                       # Number of instructions bytes read from this memory
system.mem_ctrl.dram.bytes_written::.writebacks      4345728                       # Number of bytes written to this memory
system.mem_ctrl.dram.bytes_written::total      4345728                       # Number of bytes written to this memory
system.mem_ctrl.dram.num_reads::.cpu.inst         1092                       # Number of read requests responded to by this memory
system.mem_ctrl.dram.num_reads::.cpu.data       744029                       # Number of read requests responded to by this memory
system.mem_ctrl.dram.num_reads::total          745121                       # Number of read requests responded to by this memory
system.mem_ctrl.dram.num_writes::.writebacks        67902                       # Number of write requests responded to by this memory
system.mem_ctrl.dram.num_writes::total          67902                       # Number of write requests responded to by this memory
system.mem_ctrl.dram.bw_read::.cpu.inst       1297420                       # Total read bandwidth from this memory (bytes/s)
system.mem_ctrl.dram.bw_read::.cpu.data     883990711                       # Total read bandwidth from this memory (bytes/s)
system.mem_ctrl.dram.bw_read::total         885288130                       # Total read bandwidth from this memory (bytes/s)
system.mem_ctrl.dram.bw_inst_read::.cpu.inst      1297420                       # Instruction read bandwidth from this memory (bytes/s)
system.mem_ctrl.dram.bw_inst_read::total      1297420                       # Instruction read bandwidth from this memory (bytes/s)
system.mem_ctrl.dram.bw_write::.writebacks     80675266                       # Write bandwidth from this memory (bytes/s)
system.mem_ctrl.dram.bw_write::total         80675266                       # Write bandwidth from this memory (bytes/s)
system.mem_ctrl.dram.bw_total::.writebacks     80675266                       # Total bandwidth to/from this memory (bytes/s)
system.mem_ctrl.dram.bw_total::.cpu.inst      1297420                       # Total bandwidth to/from this memory (bytes/s)
system.mem_ctrl.dram.bw_total::.cpu.data    883990711                       # Total bandwidth to/from this memory (bytes/s)
system.mem_ctrl.dram.bw_total::total        965963396                       # Total bandwidth to/from this memory (bytes/s)
system.mem_ctrl.dram.readBursts                744801                       # Number of DRAM read bursts
system.mem_ctrl.dram.writeBursts                67870                       # Number of DRAM write bursts
system.mem_ctrl.dram.perBankRdBursts::0         46591                       # Per bank write bursts
system.mem_ctrl.dram.perBankRdBursts::1         46510                       # Per bank write bursts
system.mem_ctrl.dram.perBankRdBursts::2         46559                       # Per bank write bursts
system.mem_ctrl.dram.perBankRdBursts::3         46559                       # Per bank write bursts
system.mem_ctrl.dram.perBankRdBursts::4         46592                       # Per bank write bursts
system.mem_ctrl.dram.perBankRdBursts::5         46503                       # Per bank write bursts
system.mem_ctrl.dram.perBankRdBursts::6         46603                       # Per bank write bursts
system.mem_ctrl.dram.perBankRdBursts::7         46551                       # Per bank write bursts
system.mem_ctrl.dram.perBankRdBursts::8         46628                       # Per bank write bursts
system.mem_ctrl.dram.perBankRdBursts::9         46601                       # Per bank write bursts
system.mem_ctrl.dram.perBankRdBursts::10        46617                       # Per bank write bursts
system.mem_ctrl.dram.perBankRdBursts::11        46528                       # Per bank write bursts
system.mem_ctrl.dram.perBankRdBursts::12        46553                       # Per bank write bursts
system.mem_ctrl.dram.perBankRdBursts::13        46444                       # Per bank write bursts
system.mem_ctrl.dram.perBankRdBursts::14        46438                       # Per bank write bursts
system.mem_ctrl.dram.perBankRdBursts::15        46524                       # Per bank write bursts
system.mem_ctrl.dram.perBankWrBursts::0          4224                       # Per bank write bursts
system.mem_ctrl.dram.perBankWrBursts::1          4224                       # Per bank write bursts
system.mem_ctrl.dram.perBankWrBursts::2          4224                       # Per bank write bursts
system.mem_ctrl.dram.perBankWrBursts::3          4224                       # Per bank write bursts
system.mem_ctrl.dram.perBankWrBursts::4          4223                       # Per bank write bursts
system.mem_ctrl.dram.perBankWrBursts::5          4224                       # Per bank write bursts
system.mem_ctrl.dram.perBankWrBursts::6          4224                       # Per bank write bursts
system.mem_ctrl.dram.perBankWrBursts::7          4224                       # Per bank write bursts
system.mem_ctrl.dram.perBankWrBursts::8          4251                       # Per bank write bursts
system.mem_ctrl.dram.perBankWrBursts::9          4274                       # Per bank write bursts
system.mem_ctrl.dram.perBankWrBursts::10         4349                       # Per bank write bursts
system.mem_ctrl.dram.perBankWrBursts::11         4256                       # Per bank write bursts
system.mem_ctrl.dram.perBankWrBursts::12         4245                       # Per bank write bursts
system.mem_ctrl.dram.perBankWrBursts::13         4226                       # Per bank write bursts
system.mem_ctrl.dram.perBankWrBursts::14         4253                       # Per bank write bursts
system.mem_ctrl.dram.perBankWrBursts::15         4225                       # Per bank write bursts
system.mem_ctrl.dram.totQLat               4335676750                       # Total ticks spent queuing
system.mem_ctrl.dram.totBusLat             3724005000                       # Total ticks spent in databus transfers
system.mem_ctrl.dram.totMemAccLat         18300695500                       # Total ticks spent from burst creation until serviced by the DRAM
system.mem_ctrl.dram.avgQLat                  5821.26                       # Average queueing delay per DRAM burst
system.mem_ctrl.dram.avgBusLat                5000.00                       # Average bus latency per DRAM burst
system.mem_ctrl.dram.avgMemAccLat            24571.26                       # Average memory access latency per DRAM burst
system.mem_ctrl.dram.readRowHits               690502                       # Number of row buffer hits during reads
system.mem_ctrl.dram.writeRowHits               62220                       # Number of row buffer hits during writes
system.mem_ctrl.dram.readRowHitRate             92.71                       # Row buffer hit rate for reads
system.mem_ctrl.dram.writeRowHitRate            91.68                       # Row buffer hit rate for writes
system.mem_ctrl.dram.bytesPerActivate::samples        59941                       # Bytes accessed per row activation
system.mem_ctrl.dram.bytesPerActivate::mean   867.680953                       # Bytes accessed per row activation
system.mem_ctrl.dram.bytesPerActivate::gmean   758.918853                       # Bytes accessed per row activation
system.mem_ctrl.dram.bytesPerActivate::stdev   294.485008                       # Bytes accessed per row activation
system.mem_ctrl.dram.bytesPerActivate::0-127         1244      2.08%      2.08% # Bytes accessed per row activation
system.mem_ctrl.dram.bytesPerActivate::128-255         3700      6.17%      8.25% # Bytes accessed per row activation
system.mem_ctrl.dram.bytesPerActivate::256-383         1199      2.00%     10.25% # Bytes accessed per row activation
system.mem_ctrl.dram.bytesPerActivate::384-511         3077      5.13%     15.38% # Bytes accessed per row activation
system.mem_ctrl.dram.bytesPerActivate::512-639          652      1.09%     16.47% # Bytes accessed per row activation
system.mem_ctrl.dram.bytesPerActivate::640-767         3019      5.04%     21.51% # Bytes accessed per row activation
system.mem_ctrl.dram.bytesPerActivate::768-895          849      1.42%     22.92% # Bytes accessed per row activation
system.mem_ctrl.dram.bytesPerActivate::896-1023         3404      5.68%     28.60% # Bytes accessed per row activation
system.mem_ctrl.dram.bytesPerActivate::1024-1151        42797     71.40%    100.00% # Bytes accessed per row activation
system.mem_ctrl.dram.bytesPerActivate::total        59941                       # Bytes accessed per row activation
system.mem_ctrl.dram.bytesRead               47667264                       # Total number of bytes read from DRAM
system.mem_ctrl.dram.bytesWritten             4343680                       # Total number of bytes written to DRAM
system.mem_ctrl.dram.avgRdBW               884.907934                       # Average DRAM read bandwidth in MiBytes/s
system.mem_ctrl.dram.avgWrBW                80.637246                       # Average DRAM write bandwidth in MiBytes/s
system.mem_ctrl.dram.peakBW                  12800.00                       # Theoretical peak bandwidth in MiByte/s
system.mem_ctrl.dram.busUtil                     7.54                       # Data bus utilization in percentage
system.mem_ctrl.dram.busUtilRead                 6.91                       # Data bus utilization in percentage for reads
system.mem_ctrl.dram.busUtilWrite                0.63                       # Data bus utilization in percentage for writes
system.mem_ctrl.dram.pageHitRate                92.62                       # Row buffer hit rate, read and write combined
system.mem_ctrl.dram.power_state.pwrStateResidencyTicks::UNDEFINED  53866919000                       # Cumulative time (in ticks) in various power states
system.mem_ctrl.dram.rank0.actEnergy        213507420                       # Energy for activate commands per rank (pJ)
system.mem_ctrl.dram.rank0.preEnergy        113474295                       # Energy for precharge commands per rank (pJ)
system.mem_ctrl.dram.rank0.readEnergy      2659421520                       # Energy for read commands per rank (pJ)
system.mem_ctrl.dram.rank0.writeEnergy      176389020                       # Energy for write commands per rank (pJ)
system.mem_ctrl.dram.rank0.refreshEnergy 4252079520.000000                       # Energy for refresh commands per rank (pJ)
system.mem_ctrl.dram.rank0.actBackEnergy  13123546620                       # Energy for active background per rank (pJ)
system.mem_ctrl.dram.rank0.preBackEnergy   9633489600                       # Energy for precharge background per rank (pJ)
system.mem_ctrl.dram.rank0.actPowerDownEnergy            0                       # Energy for active power-down per rank (pJ)
system.mem_ctrl.dram.rank0.prePowerDownEnergy            0                       # Energy for precharge power-down per rank (pJ)
system.mem_ctrl.dram.rank0.selfRefreshEnergy            0                       # Energy for self refresh per rank (pJ)
system.mem_ctrl.dram.rank0.totalEnergy    30171907995                       # Total energy per rank (pJ)
system.mem_ctrl.dram.rank0.averagePower    560.119431                       # Core power per rank (mW)
system.mem_ctrl.dram.rank0.totalIdleTime            0                       # Total Idle time Per DRAM Rank
system.mem_ctrl.dram.rank0.pwrStateTime::IDLE  24745338500                       # Time in different power states
system.mem_ctrl.dram.rank0.pwrStateTime::REF   1798680000                       # Time in different power states
system.mem_ctrl.dram.rank0.pwrStateTime::SREF            0                       # Time in different power states
system.mem_ctrl.dram.rank0.pwrStateTime::PRE_PDN            0                       # Time in different power states
system.mem_ctrl.dram.rank0.pwrStateTime::ACT  27322900500                       # Time in different power states
system.mem_ctrl.dram.rank0.pwrStateTime::ACT_PDN            0                       # Time in different power states
system.mem_ctrl.dram.rank1.actEnergy        214528440                       # Energy for activate commands per rank (pJ)
system.mem_ctrl.dram.rank1.preEnergy        114001800                       # Energy for precharge commands per rank (pJ)
system.mem_ctrl.dram.rank1.readEnergy      2658457620                       # Energy for read commands per rank (pJ)
system.mem_ctrl.dram.rank1.writeEnergy      177892380                       # Energy for write commands per rank (pJ)
system.mem_ctrl.dram.rank1.refreshEnergy 4252079520.000000                       # Energy for refresh commands per rank (pJ)
system.mem_ctrl.dram.rank1.actBackEnergy  13136357940                       # Energy for active background per rank (pJ)
system.mem_ctrl.dram.rank1.preBackEnergy   9622701120                       # Energy for precharge background per rank (pJ)
system.mem_ctrl.dram.rank1.actPowerDownEnergy            0                       # Energy for active power-down per rank (pJ)
system.mem_ctrl.dram.rank1.prePowerDownEnergy            0                       # Energy for precharge power-down per rank (pJ)
system.mem_ctrl.dram.rank1.selfRefreshEnergy            0                       # Energy for self refresh per rank (pJ)
system.mem_ctrl.dram.rank1.totalEnergy    30176018820                       # Total energy per rank (pJ)
system.mem_ctrl.dram.rank1.averagePower    560.195745                       # Core power per rank (mW)
system.mem_ctrl.dram.rank1.totalIdleTime            0                       # Total Idle time Per DRAM Rank
system.mem_ctrl.dram.rank1.pwrStateTime::IDLE  24718760750                       # Time in different power states
system.mem_ctrl.dram.rank1.pwrStateTime::REF   1798680000                       # Time in different power states
system.mem_ctrl.dram.rank1.pwrStateTime::SREF            0                       # Time in different power states
system.mem_ctrl.dram.rank1.pwrStateTime::PRE_PDN            0                       # Time in different power states
system.mem_ctrl.dram.rank1.pwrStateTime::ACT  27349478250                       # Time in different power states
system.mem_ctrl.dram.rank1.pwrStateTime::ACT_PDN            0                       # Time in different power states
system.mem_ctrl.power_state.pwrStateResidencyTicks::UNDEFINED  53866919000                       # Cumulative time (in ticks) in various power states
system.membus.trans_dist::ReadResp             677244                       # Transaction distribution
system.membus.trans_dist::WritebackDirty        67902                       # Transaction distribution
system.membus.trans_dist::CleanEvict           660736                       # Transaction distribution
system.membus.trans_dist::ReadExReq             67877                       # Transaction distribution
system.membus.trans_dist::ReadExResp            67877                       # Transaction distribution
system.membus.trans_dist::ReadSharedReq        677244                       # Transaction distribution
system.membus.pkt_count_system.l2cache.mem_side_port::system.mem_ctrl.port      2218880                       # Packet count per connected requestor and responder (bytes)
system.membus.pkt_count_system.l2cache.mem_side_port::total      2218880                       # Packet count per connected requestor and responder (bytes)
system.membus.pkt_count::total                2218880                       # Packet count per connected requestor and responder (bytes)
system.membus.pkt_size_system.l2cache.mem_side_port::system.mem_ctrl.port     52033472                       # Cumulative packet size per connected requestor and responder (bytes)
system.membus.pkt_size_system.l2cache.mem_side_port::total     52033472                       # Cumulative packet size per connected requestor and responder (bytes)
system.membus.pkt_size::total                52033472                       # Cumulative packet size per connected requestor and responder (bytes)
system.membus.snoops                                0                       # Total snoops (count)
system.membus.snoopTraffic                          0                       # Total snoop traffic (bytes)
system.membus.snoop_fanout::samples            745121                       # Request fanout histogram
system.membus.snoop_fanout::mean                    0                       # Request fanout histogram
system.membus.snoop_fanout::stdev                   0                       # Request fanout histogram
system.membus.snoop_fanout::underflows              0      0.00%      0.00% # Request fanout histogram
system.membus.snoop_fanout::0                  745121    100.00%    100.00% # Request fanout histogram
system.membus.snoop_fanout::1                       0      0.00%    100.00% # Request fanout histogram
system.membus.snoop_fanout::overflows               0      0.00%    100.00% # Request fanout histogram
system.membus.snoop_fanout::min_value               0                       # Request fanout histogram
system.membus.snoop_fanout::max_value               0                       # Request fanout histogram
system.membus.snoop_fanout::total              745121                       # Request fanout histogram
system.membus.power_state.pwrStateResidencyTicks::UNDEFINED  53866919000                       # Cumulative time (in ticks) in various power states
system.membus.reqLayer2.occupancy          1745367000                       # Layer occupancy (ticks)
system.membus.reqLayer2.utilization               3.2                       # Layer utilization (%)
system.membus.respLayer0.occupancy         3922405500                       # Layer occupancy (ticks)
system.membus.respLayer0.utilization              7.3                       # Layer utilization (%)

---------- End Simulation Statistics   ----------
