
---------- Begin Simulation Statistics ----------
final_tick                               203635170000                       # Number of ticks from beginning of simulation (restored from checkpoints and never reset)
host_inst_rate                                  83429                       # Simulator instruction rate (inst/s)
host_mem_usage                                 669080                       # Number of bytes of host memory used
host_op_rate                                   196453                       # Simulator op (including micro ops) rate (op/s)
host_seconds                                  1935.49                       # Real time elapsed on the host
host_tick_rate                              105211018                       # Simulator tick rate (ticks/s)
sim_freq                                 1000000000000                       # Frequency of simulated ticks
sim_insts                                   161477007                       # Number of instructions simulated
sim_ops                                     380232841                       # Number of ops (including micro ops) simulated
sim_seconds                                  0.203635                       # Number of seconds simulated
sim_ticks                                203635170000                       # Number of ticks simulated
system.cpu.cc_regfile_reads                  69502851                       # number of cc regfile reads
system.cpu.cc_regfile_writes                 39201245                       # number of cc regfile writes
system.cpu.committedInsts                   161477007                       # Number of Instructions Simulated
system.cpu.committedOps                     380232841                       # Number of Ops (including micro ops) Simulated
system.cpu.cpi                               1.261078                       # CPI: Cycles Per Instruction
system.cpu.cpi_total                         1.261078                       # CPI: Total CPI of All Threads
system.cpu.fp_regfile_reads                 569761069                       # number of floating regfile reads
system.cpu.fp_regfile_writes                277285490                       # number of floating regfile writes
system.cpu.idleCycles                           47734                       # Total number of cycles that the CPU has spent unscheduled due to idling
system.cpu.iew.branchMispredicts               165434                       # Number of branch mispredicts detected at execute
system.cpu.iew.exec_branches                 13901563                       # Number of branches executed
system.cpu.iew.exec_nop                             0                       # number of nop insts executed
system.cpu.iew.exec_rate                     1.873860                       # Inst execution rate
system.cpu.iew.exec_refs                     55883142                       # number of memory reference insts executed
system.cpu.iew.exec_stores                   11399309                       # Number of stores executed
system.cpu.iew.exec_swp                             0                       # number of swp insts executed
system.cpu.iew.iewBlockCycles               120352378                       # Number of cycles IEW is blocking
system.cpu.iew.iewDispLoadInsts              44812673                       # Number of dispatched load instructions
system.cpu.iew.iewDispNonSpecInsts                 56                       # Number of dispatched non-speculative instructions
system.cpu.iew.iewDispSquashedInsts                83                       # Number of squashed instructions skipped by dispatch
system.cpu.iew.iewDispStoreInsts             11400200                       # Number of dispatched store instructions
system.cpu.iew.iewDispatchedInsts           384378720                       # Number of instructions dispatched to IQ
system.cpu.iew.iewExecLoadInsts              44483833                       # Number of load instructions executed
system.cpu.iew.iewExecSquashedInsts            657385                       # Number of squashed instructions skipped in execute
system.cpu.iew.iewExecutedInsts             381583860                       # Number of executed instructions
system.cpu.iew.iewIQFullEvents                1310788                       # Number of times the IQ has become full, causing a stall
system.cpu.iew.iewIdleCycles                        0                       # Number of cycles IEW is idle
system.cpu.iew.iewLSQFullEvents                203301                       # Number of times the LSQ has become full, causing a stall
system.cpu.iew.iewSquashCycles                 166274                       # Number of cycles IEW is squashing
system.cpu.iew.iewUnblockCycles               2171541                       # Number of cycles IEW is unblocking
system.cpu.iew.memOrderViolationEvents             33                       # Number of memory order violations
system.cpu.iew.predictedNotTakenIncorrect         1359                       # Number of branches that were predicted not taken incorrectly
system.cpu.iew.predictedTakenIncorrect         164075                       # Number of branches that were predicted taken incorrectly
system.cpu.iew.wb_consumers                 590929812                       # num instructions consuming a value
system.cpu.iew.wb_count                     381221910                       # cumulative count of insts written-back
system.cpu.iew.wb_fanout                     0.561750                       # average fanout of values written-back
system.cpu.iew.wb_producers                 331954711                       # num instructions producing a value
system.cpu.iew.wb_rate                       1.872083                       # insts written-back per cycle
system.cpu.iew.wb_sent                      381255429                       # cumulative count of insts sent to commit
system.cpu.int_regfile_reads                178837593                       # number of integer regfile reads
system.cpu.int_regfile_writes                78502416                       # number of integer regfile writes
system.cpu.ipc                               0.792972                       # IPC: Instructions Per Cycle
system.cpu.ipc_total                         0.792972                       # IPC: Total IPC of All Threads
system.cpu.iq.FU_type_0::No_OpClass            166928      0.04%      0.04% # Type of FU issued
system.cpu.iq.FU_type_0::IntAlu             158088471     41.36%     41.40% # Type of FU issued
system.cpu.iq.FU_type_0::IntMult                   18      0.00%     41.40% # Type of FU issued
system.cpu.iq.FU_type_0::IntDiv                    28      0.00%     41.40% # Type of FU issued
system.cpu.iq.FU_type_0::FloatAdd                 173      0.00%     41.40% # Type of FU issued
system.cpu.iq.FU_type_0::FloatCmp                   0      0.00%     41.40% # Type of FU issued
system.cpu.iq.FU_type_0::FloatCvt                   0      0.00%     41.40% # Type of FU issued
system.cpu.iq.FU_type_0::FloatMult                  0      0.00%     41.40% # Type of FU issued
system.cpu.iq.FU_type_0::FloatMultAcc               0      0.00%     41.40% # Type of FU issued
system.cpu.iq.FU_type_0::FloatDiv                   0      0.00%     41.40% # Type of FU issued
system.cpu.iq.FU_type_0::FloatMisc                  0      0.00%     41.40% # Type of FU issued
system.cpu.iq.FU_type_0::FloatSqrt                  0      0.00%     41.40% # Type of FU issued
system.cpu.iq.FU_type_0::SimdAdd             81264802     21.26%     62.66% # Type of FU issued
system.cpu.iq.FU_type_0::SimdAddAcc                 0      0.00%     62.66% # Type of FU issued
system.cpu.iq.FU_type_0::SimdAlu             37684150      9.86%     72.52% # Type of FU issued
system.cpu.iq.FU_type_0::SimdCmp                   12      0.00%     72.52% # Type of FU issued
system.cpu.iq.FU_type_0::SimdCvt             10813734      2.83%     75.35% # Type of FU issued
system.cpu.iq.FU_type_0::SimdMisc            21627382      5.66%     81.01% # Type of FU issued
system.cpu.iq.FU_type_0::SimdMult                   0      0.00%     81.01% # Type of FU issued
system.cpu.iq.FU_type_0::SimdMultAcc                0      0.00%     81.01% # Type of FU issued
system.cpu.iq.FU_type_0::SimdShift           16384130      4.29%     85.29% # Type of FU issued
system.cpu.iq.FU_type_0::SimdShiftAcc               0      0.00%     85.29% # Type of FU issued
system.cpu.iq.FU_type_0::SimdDiv                    0      0.00%     85.29% # Type of FU issued
system.cpu.iq.FU_type_0::SimdSqrt                   0      0.00%     85.29% # Type of FU issued
system.cpu.iq.FU_type_0::SimdFloatAdd               0      0.00%     85.29% # Type of FU issued
system.cpu.iq.FU_type_0::SimdFloatAlu               0      0.00%     85.29% # Type of FU issued
system.cpu.iq.FU_type_0::SimdFloatCmp               0      0.00%     85.29% # Type of FU issued
system.cpu.iq.FU_type_0::SimdFloatCvt               0      0.00%     85.29% # Type of FU issued
system.cpu.iq.FU_type_0::SimdFloatDiv               0      0.00%     85.29% # Type of FU issued
system.cpu.iq.FU_type_0::SimdFloatMisc              0      0.00%     85.29% # Type of FU issued
system.cpu.iq.FU_type_0::SimdFloatMult              0      0.00%     85.29% # Type of FU issued
system.cpu.iq.FU_type_0::SimdFloatMultAcc            0      0.00%     85.29% # Type of FU issued
system.cpu.iq.FU_type_0::SimdFloatSqrt              0      0.00%     85.29% # Type of FU issued
system.cpu.iq.FU_type_0::SimdReduceAdd              0      0.00%     85.29% # Type of FU issued
system.cpu.iq.FU_type_0::SimdReduceAlu              0      0.00%     85.29% # Type of FU issued
system.cpu.iq.FU_type_0::SimdReduceCmp              0      0.00%     85.29% # Type of FU issued
system.cpu.iq.FU_type_0::SimdFloatReduceAdd            0      0.00%     85.29% # Type of FU issued
system.cpu.iq.FU_type_0::SimdFloatReduceCmp            0      0.00%     85.29% # Type of FU issued
system.cpu.iq.FU_type_0::SimdAes                    0      0.00%     85.29% # Type of FU issued
system.cpu.iq.FU_type_0::SimdAesMix                 0      0.00%     85.29% # Type of FU issued
system.cpu.iq.FU_type_0::SimdSha1Hash               0      0.00%     85.29% # Type of FU issued
system.cpu.iq.FU_type_0::SimdSha1Hash2              0      0.00%     85.29% # Type of FU issued
system.cpu.iq.FU_type_0::SimdSha256Hash             0      0.00%     85.29% # Type of FU issued
system.cpu.iq.FU_type_0::SimdSha256Hash2            0      0.00%     85.29% # Type of FU issued
system.cpu.iq.FU_type_0::SimdShaSigma2              0      0.00%     85.29% # Type of FU issued
system.cpu.iq.FU_type_0::SimdShaSigma3              0      0.00%     85.29% # Type of FU issued
system.cpu.iq.FU_type_0::SimdPredAlu                0      0.00%     85.29% # Type of FU issued
system.cpu.iq.FU_type_0::MemRead                17517      0.00%     85.30% # Type of FU issued
system.cpu.iq.FU_type_0::MemWrite                9914      0.00%     85.30% # Type of FU issued
system.cpu.iq.FU_type_0::FloatMemRead        44794420     11.72%     97.02% # Type of FU issued
system.cpu.iq.FU_type_0::FloatMemWrite       11389566      2.98%    100.00% # Type of FU issued
system.cpu.iq.FU_type_0::IprAccess                  0      0.00%    100.00% # Type of FU issued
system.cpu.iq.FU_type_0::InstPrefetch               0      0.00%    100.00% # Type of FU issued
system.cpu.iq.FU_type_0::total              382241245                       # Type of FU issued
system.cpu.iq.fp_alu_accesses               290641834                       # Number of floating point alu accesses
system.cpu.iq.fp_inst_queue_reads           579972756                       # Number of floating instruction queue reads
system.cpu.iq.fp_inst_queue_wakeup_accesses    288642619                       # Number of floating instruction queue wakeup accesses
system.cpu.iq.fp_inst_queue_writes          294151633                       # Number of floating instruction queue writes
system.cpu.iq.fu_busy_cnt                     1313164                       # FU busy when requested
system.cpu.iq.fu_busy_rate                   0.003435                       # FU busy rate (busy events/executed inst)
system.cpu.iq.fu_full::No_OpClass                   0      0.00%      0.00% # attempts to use FU when none available
system.cpu.iq.fu_full::IntAlu                    2106      0.16%      0.16% # attempts to use FU when none available
system.cpu.iq.fu_full::IntMult                      0      0.00%      0.16% # attempts to use FU when none available
system.cpu.iq.fu_full::IntDiv                       0      0.00%      0.16% # attempts to use FU when none available
system.cpu.iq.fu_full::FloatAdd                     0      0.00%      0.16% # attempts to use FU when none available
system.cpu.iq.fu_full::FloatCmp                     0      0.00%      0.16% # attempts to use FU when none available
system.cpu.iq.fu_full::FloatCvt                     0      0.00%      0.16% # attempts to use FU when none available
system.cpu.iq.fu_full::FloatMult                    0      0.00%      0.16% # attempts to use FU when none available
system.cpu.iq.fu_full::FloatMultAcc                 0      0.00%      0.16% # attempts to use FU when none available
system.cpu.iq.fu_full::FloatDiv                     0      0.00%      0.16% # attempts to use FU when none available
system.cpu.iq.fu_full::FloatMisc                    0      0.00%      0.16% # attempts to use FU when none available
system.cpu.iq.fu_full::FloatSqrt                    0      0.00%      0.16% # attempts to use FU when none available
system.cpu.iq.fu_full::SimdAdd                1310702     99.81%     99.97% # attempts to use FU when none available
system.cpu.iq.fu_full::SimdAddAcc                   0      0.00%     99.97% # attempts to use FU when none available
system.cpu.iq.fu_full::SimdAlu                     96      0.01%     99.98% # attempts to use FU when none available
system.cpu.iq.fu_full::SimdCmp                      0      0.00%     99.98% # attempts to use FU when none available
system.cpu.iq.fu_full::SimdCvt                      9      0.00%     99.98% # attempts to use FU when none available
system.cpu.iq.fu_full::SimdMisc                    10      0.00%     99.98% # attempts to use FU when none available
system.cpu.iq.fu_full::SimdMult                     0      0.00%     99.98% # attempts to use FU when none available
system.cpu.iq.fu_full::SimdMultAcc                  0      0.00%     99.98% # attempts to use FU when none available
system.cpu.iq.fu_full::SimdShift                   53      0.00%     99.99% # attempts to use FU when none available
system.cpu.iq.fu_full::SimdShiftAcc                 0      0.00%     99.99% # attempts to use FU when none available
system.cpu.iq.fu_full::SimdDiv                      0      0.00%     99.99% # attempts to use FU when none available
system.cpu.iq.fu_full::SimdSqrt                     0      0.00%     99.99% # attempts to use FU when none available
system.cpu.iq.fu_full::SimdFloatAdd                 0      0.00%     99.99% # attempts to use FU when none available
system.cpu.iq.fu_full::SimdFloatAlu                 0      0.00%     99.99% # attempts to use FU when none available
system.cpu.iq.fu_full::SimdFloatCmp                 0      0.00%     99.99% # attempts to use FU when none available
system.cpu.iq.fu_full::SimdFloatCvt                 0      0.00%     99.99% # attempts to use FU when none available
system.cpu.iq.fu_full::SimdFloatDiv                 0      0.00%     99.99% # attempts to use FU when none available
system.cpu.iq.fu_full::SimdFloatMisc                0      0.00%     99.99% # attempts to use FU when none available
system.cpu.iq.fu_full::SimdFloatMult                0      0.00%     99.99% # attempts to use FU when none available
system.cpu.iq.fu_full::SimdFloatMultAcc             0      0.00%     99.99% # attempts to use FU when none available
system.cpu.iq.fu_full::SimdFloatSqrt                0      0.00%     99.99% # attempts to use FU when none available
system.cpu.iq.fu_full::SimdReduceAdd                0      0.00%     99.99% # attempts to use FU when none available
system.cpu.iq.fu_full::SimdReduceAlu                0      0.00%     99.99% # attempts to use FU when none available
system.cpu.iq.fu_full::SimdReduceCmp                0      0.00%     99.99% # attempts to use FU when none available
system.cpu.iq.fu_full::SimdFloatReduceAdd            0      0.00%     99.99% # attempts to use FU when none available
system.cpu.iq.fu_full::SimdFloatReduceCmp            0      0.00%     99.99% # attempts to use FU when none available
system.cpu.iq.fu_full::SimdAes                      0      0.00%     99.99% # attempts to use FU when none available
system.cpu.iq.fu_full::SimdAesMix                   0      0.00%     99.99% # attempts to use FU when none available
system.cpu.iq.fu_full::SimdSha1Hash                 0      0.00%     99.99% # attempts to use FU when none available
system.cpu.iq.fu_full::SimdSha1Hash2                0      0.00%     99.99% # attempts to use FU when none available
system.cpu.iq.fu_full::SimdSha256Hash               0      0.00%     99.99% # attempts to use FU when none available
system.cpu.iq.fu_full::SimdSha256Hash2              0      0.00%     99.99% # attempts to use FU when none available
system.cpu.iq.fu_full::SimdShaSigma2                0      0.00%     99.99% # attempts to use FU when none available
system.cpu.iq.fu_full::SimdShaSigma3                0      0.00%     99.99% # attempts to use FU when none available
system.cpu.iq.fu_full::SimdPredAlu                  0      0.00%     99.99% # attempts to use FU when none available
system.cpu.iq.fu_full::MemRead                     57      0.00%     99.99% # attempts to use FU when none available
system.cpu.iq.fu_full::MemWrite                    65      0.00%     99.99% # attempts to use FU when none available
system.cpu.iq.fu_full::FloatMemRead                22      0.00%    100.00% # attempts to use FU when none available
system.cpu.iq.fu_full::FloatMemWrite               44      0.00%    100.00% # attempts to use FU when none available
system.cpu.iq.fu_full::IprAccess                    0      0.00%    100.00% # attempts to use FU when none available
system.cpu.iq.fu_full::InstPrefetch                 0      0.00%    100.00% # attempts to use FU when none available
system.cpu.iq.int_alu_accesses               92745647                       # Number of integer alu accesses
system.cpu.iq.int_inst_queue_reads          389574327                       # Number of integer instruction queue reads
system.cpu.iq.int_inst_queue_wakeup_accesses     92579291                       # Number of integer instruction queue wakeup accesses
system.cpu.iq.int_inst_queue_writes          94372991                       # Number of integer instruction queue writes
system.cpu.iq.iqInstsAdded                  384378554                       # Number of instructions added to the IQ (excludes non-spec)
system.cpu.iq.iqInstsIssued                 382241245                       # Number of instructions issued
system.cpu.iq.iqNonSpecInstsAdded                 166                       # Number of non-speculative instructions added to the IQ
system.cpu.iq.iqSquashedInstsExamined         4145873                       # Number of squashed instructions iterated over during squash; mainly for profiling
system.cpu.iq.iqSquashedInstsIssued            163992                       # Number of squashed instructions issued
system.cpu.iq.iqSquashedNonSpecRemoved            130                       # Number of squashed non-spec instructions that were removed
system.cpu.iq.iqSquashedOperandsExamined      7045634                       # Number of squashed operands that are examined and possibly removed from graph
system.cpu.iq.issued_per_cycle::samples     203587437                       # Number of insts issued each cycle
system.cpu.iq.issued_per_cycle::mean         1.877529                       # Number of insts issued each cycle
system.cpu.iq.issued_per_cycle::stdev        2.843419                       # Number of insts issued each cycle
system.cpu.iq.issued_per_cycle::underflows            0      0.00%      0.00% # Number of insts issued each cycle
system.cpu.iq.issued_per_cycle::0           134280165     65.96%     65.96% # Number of insts issued each cycle
system.cpu.iq.issued_per_cycle::1             2772493      1.36%     67.32% # Number of insts issued each cycle
system.cpu.iq.issued_per_cycle::2             2496040      1.23%     68.54% # Number of insts issued each cycle
system.cpu.iq.issued_per_cycle::3             4823844      2.37%     70.91% # Number of insts issued each cycle
system.cpu.iq.issued_per_cycle::4             7862543      3.86%     74.78% # Number of insts issued each cycle
system.cpu.iq.issued_per_cycle::5            20247823      9.95%     84.72% # Number of insts issued each cycle
system.cpu.iq.issued_per_cycle::6             3814008      1.87%     86.60% # Number of insts issued each cycle
system.cpu.iq.issued_per_cycle::7            13892363      6.82%     93.42% # Number of insts issued each cycle
system.cpu.iq.issued_per_cycle::8            13398158      6.58%    100.00% # Number of insts issued each cycle
system.cpu.iq.issued_per_cycle::overflows            0      0.00%    100.00% # Number of insts issued each cycle
system.cpu.iq.issued_per_cycle::min_value            0                       # Number of insts issued each cycle
system.cpu.iq.issued_per_cycle::max_value            8                       # Number of insts issued each cycle
system.cpu.iq.issued_per_cycle::total       203587437                       # Number of insts issued each cycle
system.cpu.iq.rate                           1.877089                       # Inst issue rate
system.cpu.iq.vec_alu_accesses                      0                       # Number of vector alu accesses
system.cpu.iq.vec_inst_queue_reads                  0                       # Number of vector instruction queue reads
system.cpu.iq.vec_inst_queue_wakeup_accesses            0                       # Number of vector instruction queue wakeup accesses
system.cpu.iq.vec_inst_queue_writes                 0                       # Number of vector instruction queue writes
system.cpu.memDep0.conflictingLoads               216                       # Number of conflicting loads.
system.cpu.memDep0.conflictingStores              157                       # Number of conflicting stores.
system.cpu.memDep0.insertedLoads             44812673                       # Number of loads inserted to the mem dependence unit.
system.cpu.memDep0.insertedStores            11400200                       # Number of stores inserted to the mem dependence unit.
system.cpu.misc_regfile_reads               100677768                       # number of misc regfile reads
system.cpu.numCycles                        203635171                       # number of cpu cycles simulated
system.cpu.numWorkItemsCompleted                    0                       # number of work items this cpu completed
system.cpu.numWorkItemsStarted                      0                       # number of work items this cpu started
system.cpu.timesIdled                             691                       # Number of times that the entire CPU went into an idle state and unscheduled itself
system.cpu.workload.numSyscalls                    16                       # Number of system calls
system.l2bus.snoop_filter.hit_multi_requests            6                       # Number of requests hitting in the snoop filter with multiple (>1) holders of the requested data.
system.l2bus.snoop_filter.hit_multi_snoops            0                       # Number of snoops hitting in the snoop filter with multiple (>1) holders of the requested data.
system.l2bus.snoop_filter.hit_single_requests      1419824                       # Number of requests hitting in the snoop filter with a single holder of the requested data.
system.l2bus.snoop_filter.hit_single_snoops        14315                       # Number of snoops hitting in the snoop filter with a single holder of the requested data.
system.l2bus.snoop_filter.tot_requests        2840929                       # Total number of requests made to the snoop filter.
system.l2bus.snoop_filter.tot_snoops            14315                       # Total number of snoops made to the snoop filter.
system.membus.snoop_filter.hit_multi_requests            0                       # Number of requests hitting in the snoop filter with multiple (>1) holders of the requested data.
system.membus.snoop_filter.hit_multi_snoops            0                       # Number of snoops hitting in the snoop filter with multiple (>1) holders of the requested data.
system.membus.snoop_filter.hit_single_requests      1404513                       # Number of requests hitting in the snoop filter with a single holder of the requested data.
system.membus.snoop_filter.hit_single_snoops            0                       # Number of snoops hitting in the snoop filter with a single holder of the requested data.
system.membus.snoop_filter.tot_requests       2825509                       # Total number of requests made to the snoop filter.
system.membus.snoop_filter.tot_snoops               0                       # Total number of snoops made to the snoop filter.
system.clk_domain.clock                          1000                       # Clock period in ticks
system.clk_domain.voltage_domain.voltage            1                       # Voltage in Volts
system.cpu.branchPred.lookups                14074608                       # Number of BP lookups
system.cpu.branchPred.condPredicted          14069519                       # Number of conditional branches predicted
system.cpu.branchPred.condIncorrect            165464                       # Number of conditional branches incorrect
system.cpu.branchPred.BTBLookups             14064150                       # Number of BTB lookups
system.cpu.branchPred.BTBHits                14062464                       # Number of BTB hits
system.cpu.branchPred.BTBHitPct             99.988012                       # BTB Hit Percentage
system.cpu.branchPred.RASUsed                    1804                       # Number of times the RAS was used to get a target.
system.cpu.branchPred.RASIncorrect                 14                       # Number of incorrect RAS predictions.
system.cpu.branchPred.indirectLookups             921                       # Number of indirect predictor lookups.
system.cpu.branchPred.indirectHits                319                       # Number of indirect target hits.
system.cpu.branchPred.indirectMisses              602                       # Number of indirect misses.
system.cpu.branchPred.indirectMispredicted          182                       # Number of mispredicted indirect branches.
system.cpu.commit.commitSquashedInsts         4144414                       # The number of squashed insts skipped by commit
system.cpu.commit.commitNonSpecStalls              36                       # The number of times commit has been forced to stall to communicate backwards
system.cpu.commit.branchMispredicts            165170                       # The number of times a branch was mispredicted
system.cpu.commit.numCommittedDist::samples    203068339                       # Number of insts commited each cycle
system.cpu.commit.numCommittedDist::mean     1.872438                       # Number of insts commited each cycle
system.cpu.commit.numCommittedDist::stdev     3.042207                       # Number of insts commited each cycle
system.cpu.commit.numCommittedDist::underflows            0      0.00%      0.00% # Number of insts commited each cycle
system.cpu.commit.numCommittedDist::0       140191010     69.04%     69.04% # Number of insts commited each cycle
system.cpu.commit.numCommittedDist::1         1904399      0.94%     69.97% # Number of insts commited each cycle
system.cpu.commit.numCommittedDist::2         4428615      2.18%     72.16% # Number of insts commited each cycle
system.cpu.commit.numCommittedDist::3          209283      0.10%     72.26% # Number of insts commited each cycle
system.cpu.commit.numCommittedDist::4        11270612      5.55%     77.81% # Number of insts commited each cycle
system.cpu.commit.numCommittedDist::5         7170330      3.53%     81.34% # Number of insts commited each cycle
system.cpu.commit.numCommittedDist::6         6852377      3.37%     84.71% # Number of insts commited each cycle
system.cpu.commit.numCommittedDist::7         1538701      0.76%     85.47% # Number of insts commited each cycle
system.cpu.commit.numCommittedDist::8        29503012     14.53%    100.00% # Number of insts commited each cycle
system.cpu.commit.numCommittedDist::overflows            0      0.00%    100.00% # Number of insts commited each cycle
system.cpu.commit.numCommittedDist::min_value            0                       # Number of insts commited each cycle
system.cpu.commit.numCommittedDist::max_value            8                       # Number of insts commited each cycle
system.cpu.commit.numCommittedDist::total    203068339                       # Number of insts commited each cycle
system.cpu.commit.instsCommitted            161477007                       # Number of instructions committed
system.cpu.commit.opsCommitted              380232841                       # Number of ops (including micro ops) committed
system.cpu.commit.memRefs                    55484408                       # Number of memory references committed
system.cpu.commit.loads                      44120798                       # Number of loads committed
system.cpu.commit.amos                              0                       # Number of atomic instructions committed
system.cpu.commit.membars                          24                       # Number of memory barriers committed
system.cpu.commit.branches                   13883202                       # Number of branches committed
system.cpu.commit.vector                            0                       # Number of committed Vector instructions.
system.cpu.commit.floating                  288115755                       # Number of committed floating point instructions.
system.cpu.commit.integer                   147412303                       # Number of committed integer instructions.
system.cpu.commit.functionCalls                  1454                       # Number of function calls committed.
system.cpu.commit.committedInstType_0::No_OpClass       165929      0.04%      0.04% # Class of committed instruction
system.cpu.commit.committedInstType_0::IntAlu    156808392     41.24%     41.28% # Class of committed instruction
system.cpu.commit.committedInstType_0::IntMult           17      0.00%     41.28% # Class of committed instruction
system.cpu.commit.committedInstType_0::IntDiv           28      0.00%     41.28% # Class of committed instruction
system.cpu.commit.committedInstType_0::FloatAdd          147      0.00%     41.28% # Class of committed instruction
system.cpu.commit.committedInstType_0::FloatCmp            0      0.00%     41.28% # Class of committed instruction
system.cpu.commit.committedInstType_0::FloatCvt            0      0.00%     41.28% # Class of committed instruction
system.cpu.commit.committedInstType_0::FloatMult            0      0.00%     41.28% # Class of committed instruction
system.cpu.commit.committedInstType_0::FloatMultAcc            0      0.00%     41.28% # Class of committed instruction
system.cpu.commit.committedInstType_0::FloatDiv            0      0.00%     41.28% # Class of committed instruction
system.cpu.commit.committedInstType_0::FloatMisc            0      0.00%     41.28% # Class of committed instruction
system.cpu.commit.committedInstType_0::FloatSqrt            0      0.00%     41.28% # Class of committed instruction
system.cpu.commit.committedInstType_0::SimdAdd     81264736     21.37%     62.66% # Class of committed instruction
system.cpu.commit.committedInstType_0::SimdAddAcc            0      0.00%     62.66% # Class of committed instruction
system.cpu.commit.committedInstType_0::SimdAlu     37683986      9.91%     72.57% # Class of committed instruction
system.cpu.commit.committedInstType_0::SimdCmp           12      0.00%     72.57% # Class of committed instruction
system.cpu.commit.committedInstType_0::SimdCvt     10813714      2.84%     75.41% # Class of committed instruction
system.cpu.commit.committedInstType_0::SimdMisc     21627352      5.69%     81.10% # Class of committed instruction
system.cpu.commit.committedInstType_0::SimdMult            0      0.00%     81.10% # Class of committed instruction
system.cpu.commit.committedInstType_0::SimdMultAcc            0      0.00%     81.10% # Class of committed instruction
system.cpu.commit.committedInstType_0::SimdShift     16384120      4.31%     85.41% # Class of committed instruction
system.cpu.commit.committedInstType_0::SimdShiftAcc            0      0.00%     85.41% # Class of committed instruction
system.cpu.commit.committedInstType_0::SimdDiv            0      0.00%     85.41% # Class of committed instruction
system.cpu.commit.committedInstType_0::SimdSqrt            0      0.00%     85.41% # Class of committed instruction
system.cpu.commit.committedInstType_0::SimdFloatAdd            0      0.00%     85.41% # Class of committed instruction
system.cpu.commit.committedInstType_0::SimdFloatAlu            0      0.00%     85.41% # Class of committed instruction
system.cpu.commit.committedInstType_0::SimdFloatCmp            0      0.00%     85.41% # Class of committed instruction
system.cpu.commit.committedInstType_0::SimdFloatCvt            0      0.00%     85.41% # Class of committed instruction
system.cpu.commit.committedInstType_0::SimdFloatDiv            0      0.00%     85.41% # Class of committed instruction
system.cpu.commit.committedInstType_0::SimdFloatMisc            0      0.00%     85.41% # Class of committed instruction
system.cpu.commit.committedInstType_0::SimdFloatMult            0      0.00%     85.41% # Class of committed instruction
system.cpu.commit.committedInstType_0::SimdFloatMultAcc            0      0.00%     85.41% # Class of committed instruction
system.cpu.commit.committedInstType_0::SimdFloatSqrt            0      0.00%     85.41% # Class of committed instruction
system.cpu.commit.committedInstType_0::SimdReduceAdd            0      0.00%     85.41% # Class of committed instruction
system.cpu.commit.committedInstType_0::SimdReduceAlu            0      0.00%     85.41% # Class of committed instruction
system.cpu.commit.committedInstType_0::SimdReduceCmp            0      0.00%     85.41% # Class of committed instruction
system.cpu.commit.committedInstType_0::SimdFloatReduceAdd            0      0.00%     85.41% # Class of committed instruction
system.cpu.commit.committedInstType_0::SimdFloatReduceCmp            0      0.00%     85.41% # Class of committed instruction
system.cpu.commit.committedInstType_0::SimdAes            0      0.00%     85.41% # Class of committed instruction
system.cpu.commit.committedInstType_0::SimdAesMix            0      0.00%     85.41% # Class of committed instruction
system.cpu.commit.committedInstType_0::SimdSha1Hash            0      0.00%     85.41% # Class of committed instruction
system.cpu.commit.committedInstType_0::SimdSha1Hash2            0      0.00%     85.41% # Class of committed instruction
system.cpu.commit.committedInstType_0::SimdSha256Hash            0      0.00%     85.41% # Class of committed instruction
system.cpu.commit.committedInstType_0::SimdSha256Hash2            0      0.00%     85.41% # Class of committed instruction
system.cpu.commit.committedInstType_0::SimdShaSigma2            0      0.00%     85.41% # Class of committed instruction
system.cpu.commit.committedInstType_0::SimdShaSigma3            0      0.00%     85.41% # Class of committed instruction
system.cpu.commit.committedInstType_0::SimdPredAlu            0      0.00%     85.41% # Class of committed instruction
system.cpu.commit.committedInstType_0::MemRead        14696      0.00%     85.41% # Class of committed instruction
system.cpu.commit.committedInstType_0::MemWrite         8947      0.00%     85.41% # Class of committed instruction
system.cpu.commit.committedInstType_0::FloatMemRead     44106102     11.60%     97.01% # Class of committed instruction
system.cpu.commit.committedInstType_0::FloatMemWrite     11354663      2.99%    100.00% # Class of committed instruction
system.cpu.commit.committedInstType_0::IprAccess            0      0.00%    100.00% # Class of committed instruction
system.cpu.commit.committedInstType_0::InstPrefetch            0      0.00%    100.00% # Class of committed instruction
system.cpu.commit.committedInstType_0::total    380232841                       # Class of committed instruction
system.cpu.commit.commitEligibleSamples      29503012                       # number cycles where commit BW limit reached
system.cpu.dcache.demand_hits::.cpu.data     47828781                       # number of demand (read+write) hits
system.cpu.dcache.demand_hits::total         47828781                       # number of demand (read+write) hits
system.cpu.dcache.overall_hits::.cpu.data     47828781                       # number of overall hits
system.cpu.dcache.overall_hits::total        47828781                       # number of overall hits
system.cpu.dcache.demand_misses::.cpu.data      8015077                       # number of demand (read+write) misses
system.cpu.dcache.demand_misses::total        8015077                       # number of demand (read+write) misses
system.cpu.dcache.overall_misses::.cpu.data      8015077                       # number of overall misses
system.cpu.dcache.overall_misses::total       8015077                       # number of overall misses
system.cpu.dcache.demand_miss_latency::.cpu.data 821855013998                       # number of demand (read+write) miss cycles
system.cpu.dcache.demand_miss_latency::total 821855013998                       # number of demand (read+write) miss cycles
system.cpu.dcache.overall_miss_latency::.cpu.data 821855013998                       # number of overall miss cycles
system.cpu.dcache.overall_miss_latency::total 821855013998                       # number of overall miss cycles
system.cpu.dcache.demand_accesses::.cpu.data     55843858                       # number of demand (read+write) accesses
system.cpu.dcache.demand_accesses::total     55843858                       # number of demand (read+write) accesses
system.cpu.dcache.overall_accesses::.cpu.data     55843858                       # number of overall (read+write) accesses
system.cpu.dcache.overall_accesses::total     55843858                       # number of overall (read+write) accesses
system.cpu.dcache.demand_miss_rate::.cpu.data     0.143527                       # miss rate for demand accesses
system.cpu.dcache.demand_miss_rate::total     0.143527                       # miss rate for demand accesses
system.cpu.dcache.overall_miss_rate::.cpu.data     0.143527                       # miss rate for overall accesses
system.cpu.dcache.overall_miss_rate::total     0.143527                       # miss rate for overall accesses
system.cpu.dcache.demand_avg_miss_latency::.cpu.data 102538.629884                       # average overall miss latency
system.cpu.dcache.demand_avg_miss_latency::total 102538.629884                       # average overall miss latency
system.cpu.dcache.overall_avg_miss_latency::.cpu.data 102538.629884                       # average overall miss latency
system.cpu.dcache.overall_avg_miss_latency::total 102538.629884                       # average overall miss latency
system.cpu.dcache.blocked_cycles::no_mshrs         1038                       # number of cycles access was blocked
system.cpu.dcache.blocked_cycles::no_targets           14                       # number of cycles access was blocked
system.cpu.dcache.blocked::no_mshrs                35                       # number of cycles access was blocked
system.cpu.dcache.blocked::no_targets               1                       # number of cycles access was blocked
system.cpu.dcache.avg_blocked_cycles::no_mshrs    29.657143                       # average number of cycles each access was blocked
system.cpu.dcache.avg_blocked_cycles::no_targets           14                       # average number of cycles each access was blocked
system.cpu.dcache.writebacks::.writebacks      1418706                       # number of writebacks
system.cpu.dcache.writebacks::total           1418706                       # number of writebacks
system.cpu.dcache.demand_mshr_hits::.cpu.data      6595170                       # number of demand (read+write) MSHR hits
system.cpu.dcache.demand_mshr_hits::total      6595170                       # number of demand (read+write) MSHR hits
system.cpu.dcache.overall_mshr_hits::.cpu.data      6595170                       # number of overall MSHR hits
system.cpu.dcache.overall_mshr_hits::total      6595170                       # number of overall MSHR hits
system.cpu.dcache.demand_mshr_misses::.cpu.data      1419907                       # number of demand (read+write) MSHR misses
system.cpu.dcache.demand_mshr_misses::total      1419907                       # number of demand (read+write) MSHR misses
system.cpu.dcache.overall_mshr_misses::.cpu.data      1419907                       # number of overall MSHR misses
system.cpu.dcache.overall_mshr_misses::total      1419907                       # number of overall MSHR misses
system.cpu.dcache.demand_mshr_miss_latency::.cpu.data 147665286998                       # number of demand (read+write) MSHR miss cycles
system.cpu.dcache.demand_mshr_miss_latency::total 147665286998                       # number of demand (read+write) MSHR miss cycles
system.cpu.dcache.overall_mshr_miss_latency::.cpu.data 147665286998                       # number of overall MSHR miss cycles
system.cpu.dcache.overall_mshr_miss_latency::total 147665286998                       # number of overall MSHR miss cycles
system.cpu.dcache.demand_mshr_miss_rate::.cpu.data     0.025426                       # mshr miss rate for demand accesses
system.cpu.dcache.demand_mshr_miss_rate::total     0.025426                       # mshr miss rate for demand accesses
system.cpu.dcache.overall_mshr_miss_rate::.cpu.data     0.025426                       # mshr miss rate for overall accesses
system.cpu.dcache.overall_mshr_miss_rate::total     0.025426                       # mshr miss rate for overall accesses
system.cpu.dcache.demand_avg_mshr_miss_latency::.cpu.data 103996.449766                       # average overall mshr miss latency
system.cpu.dcache.demand_avg_mshr_miss_latency::total 103996.449766                       # average overall mshr miss latency
system.cpu.dcache.overall_avg_mshr_miss_latency::.cpu.data 103996.449766                       # average overall mshr miss latency
system.cpu.dcache.overall_avg_mshr_miss_latency::total 103996.449766                       # average overall mshr miss latency
system.cpu.dcache.replacements                1418881                       # number of replacements
system.cpu.dcache.ReadReq_hits::.cpu.data     36533047                       # number of ReadReq hits
system.cpu.dcache.ReadReq_hits::total        36533047                       # number of ReadReq hits
system.cpu.dcache.ReadReq_misses::.cpu.data      7947194                       # number of ReadReq misses
system.cpu.dcache.ReadReq_misses::total       7947194                       # number of ReadReq misses
system.cpu.dcache.ReadReq_miss_latency::.cpu.data 814782381000                       # number of ReadReq miss cycles
system.cpu.dcache.ReadReq_miss_latency::total 814782381000                       # number of ReadReq miss cycles
system.cpu.dcache.ReadReq_accesses::.cpu.data     44480241                       # number of ReadReq accesses(hits+misses)
system.cpu.dcache.ReadReq_accesses::total     44480241                       # number of ReadReq accesses(hits+misses)
system.cpu.dcache.ReadReq_miss_rate::.cpu.data     0.178668                       # miss rate for ReadReq accesses
system.cpu.dcache.ReadReq_miss_rate::total     0.178668                       # miss rate for ReadReq accesses
system.cpu.dcache.ReadReq_avg_miss_latency::.cpu.data 102524.536459                       # average ReadReq miss latency
system.cpu.dcache.ReadReq_avg_miss_latency::total 102524.536459                       # average ReadReq miss latency
system.cpu.dcache.ReadReq_mshr_hits::.cpu.data      6595167                       # number of ReadReq MSHR hits
system.cpu.dcache.ReadReq_mshr_hits::total      6595167                       # number of ReadReq MSHR hits
system.cpu.dcache.ReadReq_mshr_misses::.cpu.data      1352027                       # number of ReadReq MSHR misses
system.cpu.dcache.ReadReq_mshr_misses::total      1352027                       # number of ReadReq MSHR misses
system.cpu.dcache.ReadReq_mshr_miss_latency::.cpu.data 140728669000                       # number of ReadReq MSHR miss cycles
system.cpu.dcache.ReadReq_mshr_miss_latency::total 140728669000                       # number of ReadReq MSHR miss cycles
system.cpu.dcache.ReadReq_mshr_miss_rate::.cpu.data     0.030396                       # mshr miss rate for ReadReq accesses
system.cpu.dcache.ReadReq_mshr_miss_rate::total     0.030396                       # mshr miss rate for ReadReq accesses
system.cpu.dcache.ReadReq_avg_mshr_miss_latency::.cpu.data 104087.173555                       # average ReadReq mshr miss latency
system.cpu.dcache.ReadReq_avg_mshr_miss_latency::total 104087.173555                       # average ReadReq mshr miss latency
system.cpu.dcache.WriteReq_hits::.cpu.data     11295734                       # number of WriteReq hits
system.cpu.dcache.WriteReq_hits::total       11295734                       # number of WriteReq hits
system.cpu.dcache.WriteReq_misses::.cpu.data        67883                       # number of WriteReq misses
system.cpu.dcache.WriteReq_misses::total        67883                       # number of WriteReq misses
system.cpu.dcache.WriteReq_miss_latency::.cpu.data   7072632998                       # number of WriteReq miss cycles
system.cpu.dcache.WriteReq_miss_latency::total   7072632998                       # number of WriteReq miss cycles
system.cpu.dcache.WriteReq_accesses::.cpu.data     11363617                       # number of WriteReq accesses(hits+misses)
system.cpu.dcache.WriteReq_accesses::total     11363617                       # number of WriteReq accesses(hits+misses)
system.cpu.dcache.WriteReq_miss_rate::.cpu.data     0.005974                       # miss rate for WriteReq accesses
system.cpu.dcache.WriteReq_miss_rate::total     0.005974                       # miss rate for WriteReq accesses
system.cpu.dcache.WriteReq_avg_miss_latency::.cpu.data 104188.574430                       # average WriteReq miss latency
system.cpu.dcache.WriteReq_avg_miss_latency::total 104188.574430                       # average WriteReq miss latency
system.cpu.dcache.WriteReq_mshr_hits::.cpu.data            3                       # number of WriteReq MSHR hits
system.cpu.dcache.WriteReq_mshr_hits::total            3                       # number of WriteReq MSHR hits
system.cpu.dcache.WriteReq_mshr_misses::.cpu.data        67880                       # number of WriteReq MSHR misses
system.cpu.dcache.WriteReq_mshr_misses::total        67880                       # number of WriteReq MSHR misses
system.cpu.dcache.WriteReq_mshr_miss_latency::.cpu.data   6936617998                       # number of WriteReq MSHR miss cycles
system.cpu.dcache.WriteReq_mshr_miss_latency::total   6936617998                       # number of WriteReq MSHR miss cycles
system.cpu.dcache.WriteReq_mshr_miss_rate::.cpu.data     0.005973                       # mshr miss rate for WriteReq accesses
system.cpu.dcache.WriteReq_mshr_miss_rate::total     0.005973                       # mshr miss rate for WriteReq accesses
system.cpu.dcache.WriteReq_avg_mshr_miss_latency::.cpu.data 102189.422481                       # average WriteReq mshr miss latency
system.cpu.dcache.WriteReq_avg_mshr_miss_latency::total 102189.422481                       # average WriteReq mshr miss latency
system.cpu.dcache.power_state.pwrStateResidencyTicks::UNDEFINED 203635170000                       # Cumulative time (in ticks) in various power states
system.cpu.dcache.tags.tagsinuse          1023.460126                       # Cycle average of tags in use
system.cpu.dcache.tags.total_refs            49248688                       # Total number of references to valid blocks.
system.cpu.dcache.tags.sampled_refs           1419905                       # Sample count of references to valid blocks.
system.cpu.dcache.tags.avg_refs             34.684495                       # Average number of references to valid blocks.
system.cpu.dcache.tags.warmup_cycle            222000                       # Cycle when the warmup percentage was hit.
system.cpu.dcache.tags.occ_blocks::.cpu.data  1023.460126                       # Average occupied blocks per requestor
system.cpu.dcache.tags.occ_percent::.cpu.data     0.999473                       # Average percentage of cache occupancy
system.cpu.dcache.tags.occ_percent::total     0.999473                       # Average percentage of cache occupancy
system.cpu.dcache.tags.occ_task_id_blocks::1024         1024                       # Occupied blocks per task id
system.cpu.dcache.tags.age_task_id_blocks_1024::0           48                       # Occupied blocks per task id
system.cpu.dcache.tags.age_task_id_blocks_1024::1          137                       # Occupied blocks per task id
system.cpu.dcache.tags.age_task_id_blocks_1024::2          838                       # Occupied blocks per task id
system.cpu.dcache.tags.age_task_id_blocks_1024::3            1                       # Occupied blocks per task id
system.cpu.dcache.tags.occ_task_id_percent::1024            1                       # Percentage of cache occupancy per task id
system.cpu.dcache.tags.tag_accesses         113107621                       # Number of tag accesses
system.cpu.dcache.tags.data_accesses        113107621                       # Number of data accesses
system.cpu.dcache.tags.power_state.pwrStateResidencyTicks::UNDEFINED 203635170000                       # Cumulative time (in ticks) in various power states
system.cpu.decode.idleCycles                  7915737                       # Number of cycles decode is idle
system.cpu.decode.blockedCycles             139865884                       # Number of cycles decode is blocked
system.cpu.decode.runCycles                  53157294                       # Number of cycles decode is running
system.cpu.decode.unblockCycles               2482248                       # Number of cycles decode is unblocking
system.cpu.decode.squashCycles                 166274                       # Number of cycles decode is squashing
system.cpu.decode.branchResolved             14057451                       # Number of times decode resolved a  branch
system.cpu.decode.branchMispred                   614                       # Number of times decode detected a branch misprediction
system.cpu.decode.decodedInsts              387174745                       # Number of instructions handled by decode
system.cpu.decode.squashedInsts                  2957                       # Number of squashed instructions handled by decode
system.cpu.dtb.rdAccesses                    44483764                       # TLB accesses on read requests
system.cpu.dtb.wrAccesses                    11399318                       # TLB accesses on write requests
system.cpu.dtb.rdMisses                         21339                       # TLB misses on read requests
system.cpu.dtb.wrMisses                         33785                       # TLB misses on write requests
system.cpu.dtb.walker.power_state.pwrStateResidencyTicks::UNDEFINED 203635170000                       # Cumulative time (in ticks) in various power states
system.cpu.fetch.icacheStallCycles           11590219                       # Number of cycles fetch is stalled on an Icache miss
system.cpu.fetch.insts                      164559138                       # Number of instructions fetch has processed
system.cpu.fetch.branches                    14074608                       # Number of branches that fetch encountered
system.cpu.fetch.predictedBranches           14064587                       # Number of branches that fetch has predicted taken
system.cpu.fetch.cycles                     191828111                       # Number of cycles fetch has run and was not squashing or blocked
system.cpu.fetch.squashCycles                  333744                       # Number of cycles fetch has spent squashing
system.cpu.fetch.miscStallCycles                  325                       # Number of cycles fetch has spent waiting on interrupts,or bad addresses, or out of MSHRs
system.cpu.fetch.pendingTrapStallCycles          1887                       # Number of stall cycles due to pending traps
system.cpu.fetch.pendingQuiesceStallCycles            1                       # Number of stall cycles due to pending quiesce instructions
system.cpu.fetch.icacheWaitRetryStallCycles           22                       # Number of stall cycles due to full MSHR
system.cpu.fetch.cacheLines                  11554907                       # Number of cache lines fetched
system.cpu.fetch.icacheSquashes                   778                       # Number of outstanding Icache misses that were squashed
system.cpu.fetch.nisnDist::samples          203587437                       # Number of instructions fetched each cycle (Total)
system.cpu.fetch.nisnDist::mean              1.908501                       # Number of instructions fetched each cycle (Total)
system.cpu.fetch.nisnDist::stdev             3.354971                       # Number of instructions fetched each cycle (Total)
system.cpu.fetch.nisnDist::underflows               0      0.00%      0.00% # Number of instructions fetched each cycle (Total)
system.cpu.fetch.nisnDist::0                147214375     72.31%     72.31% # Number of instructions fetched each cycle (Total)
system.cpu.fetch.nisnDist::1                  8186601      4.02%     76.33% # Number of instructions fetched each cycle (Total)
system.cpu.fetch.nisnDist::2                   400654      0.20%     76.53% # Number of instructions fetched each cycle (Total)
system.cpu.fetch.nisnDist::3                    32296      0.02%     76.54% # Number of instructions fetched each cycle (Total)
system.cpu.fetch.nisnDist::4                   198790      0.10%     76.64% # Number of instructions fetched each cycle (Total)
system.cpu.fetch.nisnDist::5                   386338      0.19%     76.83% # Number of instructions fetched each cycle (Total)
system.cpu.fetch.nisnDist::6                   284747      0.14%     76.97% # Number of instructions fetched each cycle (Total)
system.cpu.fetch.nisnDist::7                    42325      0.02%     76.99% # Number of instructions fetched each cycle (Total)
system.cpu.fetch.nisnDist::8                 46841311     23.01%    100.00% # Number of instructions fetched each cycle (Total)
system.cpu.fetch.nisnDist::overflows                0      0.00%    100.00% # Number of instructions fetched each cycle (Total)
system.cpu.fetch.nisnDist::min_value                0                       # Number of instructions fetched each cycle (Total)
system.cpu.fetch.nisnDist::max_value                8                       # Number of instructions fetched each cycle (Total)
system.cpu.fetch.nisnDist::total            203587437                       # Number of instructions fetched each cycle (Total)
system.cpu.fetch.branchRate                  0.069117                       # Number of branch fetches per cycle
system.cpu.fetch.rate                        0.808108                       # Number of inst fetches per cycle
system.cpu.icache.demand_hits::.cpu.inst     11553459                       # number of demand (read+write) hits
system.cpu.icache.demand_hits::total         11553459                       # number of demand (read+write) hits
system.cpu.icache.overall_hits::.cpu.inst     11553459                       # number of overall hits
system.cpu.icache.overall_hits::total        11553459                       # number of overall hits
system.cpu.icache.demand_misses::.cpu.inst         1448                       # number of demand (read+write) misses
system.cpu.icache.demand_misses::total           1448                       # number of demand (read+write) misses
system.cpu.icache.overall_misses::.cpu.inst         1448                       # number of overall misses
system.cpu.icache.overall_misses::total          1448                       # number of overall misses
system.cpu.icache.demand_miss_latency::.cpu.inst    139441000                       # number of demand (read+write) miss cycles
system.cpu.icache.demand_miss_latency::total    139441000                       # number of demand (read+write) miss cycles
system.cpu.icache.overall_miss_latency::.cpu.inst    139441000                       # number of overall miss cycles
system.cpu.icache.overall_miss_latency::total    139441000                       # number of overall miss cycles
system.cpu.icache.demand_accesses::.cpu.inst     11554907                       # number of demand (read+write) accesses
system.cpu.icache.demand_accesses::total     11554907                       # number of demand (read+write) accesses
system.cpu.icache.overall_accesses::.cpu.inst     11554907                       # number of overall (read+write) accesses
system.cpu.icache.overall_accesses::total     11554907                       # number of overall (read+write) accesses
system.cpu.icache.demand_miss_rate::.cpu.inst     0.000125                       # miss rate for demand accesses
system.cpu.icache.demand_miss_rate::total     0.000125                       # miss rate for demand accesses
system.cpu.icache.overall_miss_rate::.cpu.inst     0.000125                       # miss rate for overall accesses
system.cpu.icache.overall_miss_rate::total     0.000125                       # miss rate for overall accesses
system.cpu.icache.demand_avg_miss_latency::.cpu.inst 96299.033149                       # average overall miss latency
system.cpu.icache.demand_avg_miss_latency::total 96299.033149                       # average overall miss latency
system.cpu.icache.overall_avg_miss_latency::.cpu.inst 96299.033149                       # average overall miss latency
system.cpu.icache.overall_avg_miss_latency::total 96299.033149                       # average overall miss latency
system.cpu.icache.blocked_cycles::no_mshrs          279                       # number of cycles access was blocked
system.cpu.icache.blocked_cycles::no_targets            0                       # number of cycles access was blocked
system.cpu.icache.blocked::no_mshrs                 4                       # number of cycles access was blocked
system.cpu.icache.blocked::no_targets               0                       # number of cycles access was blocked
system.cpu.icache.avg_blocked_cycles::no_mshrs    69.750000                       # average number of cycles each access was blocked
system.cpu.icache.avg_blocked_cycles::no_targets          nan                       # average number of cycles each access was blocked
system.cpu.icache.demand_mshr_hits::.cpu.inst          248                       # number of demand (read+write) MSHR hits
system.cpu.icache.demand_mshr_hits::total          248                       # number of demand (read+write) MSHR hits
system.cpu.icache.overall_mshr_hits::.cpu.inst          248                       # number of overall MSHR hits
system.cpu.icache.overall_mshr_hits::total          248                       # number of overall MSHR hits
system.cpu.icache.demand_mshr_misses::.cpu.inst         1200                       # number of demand (read+write) MSHR misses
system.cpu.icache.demand_mshr_misses::total         1200                       # number of demand (read+write) MSHR misses
system.cpu.icache.overall_mshr_misses::.cpu.inst         1200                       # number of overall MSHR misses
system.cpu.icache.overall_mshr_misses::total         1200                       # number of overall MSHR misses
system.cpu.icache.demand_mshr_miss_latency::.cpu.inst    116855000                       # number of demand (read+write) MSHR miss cycles
system.cpu.icache.demand_mshr_miss_latency::total    116855000                       # number of demand (read+write) MSHR miss cycles
system.cpu.icache.overall_mshr_miss_latency::.cpu.inst    116855000                       # number of overall MSHR miss cycles
system.cpu.icache.overall_mshr_miss_latency::total    116855000                       # number of overall MSHR miss cycles
system.cpu.icache.demand_mshr_miss_rate::.cpu.inst     0.000104                       # mshr miss rate for demand accesses
system.cpu.icache.demand_mshr_miss_rate::total     0.000104                       # mshr miss rate for demand accesses
system.cpu.icache.overall_mshr_miss_rate::.cpu.inst     0.000104                       # mshr miss rate for overall accesses
system.cpu.icache.overall_mshr_miss_rate::total     0.000104                       # mshr miss rate for overall accesses
system.cpu.icache.demand_avg_mshr_miss_latency::.cpu.inst 97379.166667                       # average overall mshr miss latency
system.cpu.icache.demand_avg_mshr_miss_latency::total 97379.166667                       # average overall mshr miss latency
system.cpu.icache.overall_avg_mshr_miss_latency::.cpu.inst 97379.166667                       # average overall mshr miss latency
system.cpu.icache.overall_avg_mshr_miss_latency::total 97379.166667                       # average overall mshr miss latency
system.cpu.icache.replacements                    941                       # number of replacements
system.cpu.icache.ReadReq_hits::.cpu.inst     11553459                       # number of ReadReq hits
system.cpu.icache.ReadReq_hits::total        11553459                       # number of ReadReq hits
system.cpu.icache.ReadReq_misses::.cpu.inst         1448                       # number of ReadReq misses
system.cpu.icache.ReadReq_misses::total          1448                       # number of ReadReq misses
system.cpu.icache.ReadReq_miss_latency::.cpu.inst    139441000                       # number of ReadReq miss cycles
system.cpu.icache.ReadReq_miss_latency::total    139441000                       # number of ReadReq miss cycles
system.cpu.icache.ReadReq_accesses::.cpu.inst     11554907                       # number of ReadReq accesses(hits+misses)
system.cpu.icache.ReadReq_accesses::total     11554907                       # number of ReadReq accesses(hits+misses)
system.cpu.icache.ReadReq_miss_rate::.cpu.inst     0.000125                       # miss rate for ReadReq accesses
system.cpu.icache.ReadReq_miss_rate::total     0.000125                       # miss rate for ReadReq accesses
system.cpu.icache.ReadReq_avg_miss_latency::.cpu.inst 96299.033149                       # average ReadReq miss latency
system.cpu.icache.ReadReq_avg_miss_latency::total 96299.033149                       # average ReadReq miss latency
system.cpu.icache.ReadReq_mshr_hits::.cpu.inst          248                       # number of ReadReq MSHR hits
system.cpu.icache.ReadReq_mshr_hits::total          248                       # number of ReadReq MSHR hits
system.cpu.icache.ReadReq_mshr_misses::.cpu.inst         1200                       # number of ReadReq MSHR misses
system.cpu.icache.ReadReq_mshr_misses::total         1200                       # number of ReadReq MSHR misses
system.cpu.icache.ReadReq_mshr_miss_latency::.cpu.inst    116855000                       # number of ReadReq MSHR miss cycles
system.cpu.icache.ReadReq_mshr_miss_latency::total    116855000                       # number of ReadReq MSHR miss cycles
system.cpu.icache.ReadReq_mshr_miss_rate::.cpu.inst     0.000104                       # mshr miss rate for ReadReq accesses
system.cpu.icache.ReadReq_mshr_miss_rate::total     0.000104                       # mshr miss rate for ReadReq accesses
system.cpu.icache.ReadReq_avg_mshr_miss_latency::.cpu.inst 97379.166667                       # average ReadReq mshr miss latency
system.cpu.icache.ReadReq_avg_mshr_miss_latency::total 97379.166667                       # average ReadReq mshr miss latency
system.cpu.icache.power_state.pwrStateResidencyTicks::UNDEFINED 203635170000                       # Cumulative time (in ticks) in various power states
system.cpu.icache.tags.tagsinuse           253.976622                       # Cycle average of tags in use
system.cpu.icache.tags.total_refs            11554658                       # Total number of references to valid blocks.
system.cpu.icache.tags.sampled_refs              1199                       # Sample count of references to valid blocks.
system.cpu.icache.tags.avg_refs           9636.912427                       # Average number of references to valid blocks.
system.cpu.icache.tags.warmup_cycle            107000                       # Cycle when the warmup percentage was hit.
system.cpu.icache.tags.occ_blocks::.cpu.inst   253.976622                       # Average occupied blocks per requestor
system.cpu.icache.tags.occ_percent::.cpu.inst     0.992096                       # Average percentage of cache occupancy
system.cpu.icache.tags.occ_percent::total     0.992096                       # Average percentage of cache occupancy
system.cpu.icache.tags.occ_task_id_blocks::1024          256                       # Occupied blocks per task id
system.cpu.icache.tags.age_task_id_blocks_1024::0           70                       # Occupied blocks per task id
system.cpu.icache.tags.age_task_id_blocks_1024::1           95                       # Occupied blocks per task id
system.cpu.icache.tags.age_task_id_blocks_1024::4           91                       # Occupied blocks per task id
system.cpu.icache.tags.occ_task_id_percent::1024            1                       # Percentage of cache occupancy per task id
system.cpu.icache.tags.tag_accesses          23111013                       # Number of tag accesses
system.cpu.icache.tags.data_accesses         23111013                       # Number of data accesses
system.cpu.icache.tags.power_state.pwrStateResidencyTicks::UNDEFINED 203635170000                       # Cumulative time (in ticks) in various power states
system.cpu.interrupts.clk_domain.clock          16000                       # Clock period in ticks
system.cpu.itb.rdAccesses                           0                       # TLB accesses on read requests
system.cpu.itb.wrAccesses                    11555235                       # TLB accesses on write requests
system.cpu.itb.rdMisses                             0                       # TLB misses on read requests
system.cpu.itb.wrMisses                           456                       # TLB misses on write requests
system.cpu.itb.walker.power_state.pwrStateResidencyTicks::UNDEFINED 203635170000                       # Cumulative time (in ticks) in various power states
system.cpu.lsq0.forwLoads                        3419                       # Number of loads that had data forwarded from stores
system.cpu.lsq0.squashedLoads                  691875                       # Number of loads squashed
system.cpu.lsq0.ignoredResponses                    3                       # Number of memory responses ignored because the instruction is squashed
system.cpu.lsq0.memOrderViolation                  33                       # Number of memory ordering violations
system.cpu.lsq0.squashedStores                  36590                       # Number of stores squashed
system.cpu.lsq0.rescheduledLoads                    1                       # Number of loads that were rescheduled
system.cpu.lsq0.blockedByCache                     30                       # Number of times an access to memory failed due to the cache being blocked
system.cpu.power_state.pwrStateResidencyTicks::ON 203635170000                       # Cumulative time (in ticks) in various power states
system.cpu.rename.squashCycles                 166274                       # Number of cycles rename is squashing
system.cpu.rename.idleCycles                  9533809                       # Number of cycles rename is idle
system.cpu.rename.blockCycles               128473586                       # Number of cycles rename is blocking
system.cpu.rename.serializeStallCycles            369                       # count of cycles rename stalledfor serializing inst
system.cpu.rename.runCycles                  53202105                       # Number of cycles rename is running
system.cpu.rename.unblockCycles              12211294                       # Number of cycles rename is unblocking
system.cpu.rename.renamedInsts              385859297                       # Number of instructions processed by rename
system.cpu.rename.ROBFullEvents                122991                       # Number of times rename has blocked due to ROB full
system.cpu.rename.IQFullEvents                2622108                       # Number of times rename has blocked due to IQ full
system.cpu.rename.LQFullEvents                      2                       # Number of times rename has blocked due to LQ full
system.cpu.rename.SQFullEvents                7196992                       # Number of times rename has blocked due to SQ full
system.cpu.rename.renamedOperands           399758594                       # Number of destination operands rename has renamed
system.cpu.rename.lookups                   929311035                       # Number of register rename lookups that rename has made
system.cpu.rename.intLookups                180829136                       # Number of integer rename lookups
system.cpu.rename.fpLookups                 576316457                       # Number of floating rename lookups
system.cpu.rename.committedMaps             393949810                       # Number of HB maps that are committed
system.cpu.rename.undoneMaps                  5808778                       # Number of HB maps that are undone due to squashing
system.cpu.rename.serializing                      11                       # count of serializing insts renamed
system.cpu.rename.tempSerializing                   8                       # count of temporary serializing insts renamed
system.cpu.rename.skidInsts                  20160482                       # count of insts added to the skid buffer
system.cpu.rob.reads                        557928568                       # The number of ROB reads
system.cpu.rob.writes                       769273628                       # The number of ROB writes
system.cpu.thread_0.numInsts                161477007                       # Number of Instructions committed
system.cpu.thread_0.numOps                  380232841                       # Number of Ops committed
system.cpu.thread_0.numMemRefs                      0                       # Number of Memory References
system.l2bus.trans_dist::ReadResp             1353226                       # Transaction distribution
system.l2bus.trans_dist::WritebackDirty       2822122                       # Transaction distribution
system.l2bus.trans_dist::CleanEvict             16070                       # Transaction distribution
system.l2bus.trans_dist::UpgradeReq                 2                       # Transaction distribution
system.l2bus.trans_dist::UpgradeResp                2                       # Transaction distribution
system.l2bus.trans_dist::ReadExReq              67878                       # Transaction distribution
system.l2bus.trans_dist::ReadExResp             67878                       # Transaction distribution
system.l2bus.trans_dist::ReadSharedReq        1353227                       # Transaction distribution
system.l2bus.pkt_count_system.cpu.icache.mem_side_port::system.l2cache.cpu_side_port         3337                       # Packet count per connected requestor and responder (bytes)
system.l2bus.pkt_count_system.cpu.dcache.mem_side_port::system.l2cache.cpu_side_port      4258694                       # Packet count per connected requestor and responder (bytes)
system.l2bus.pkt_count::total                 4262031                       # Packet count per connected requestor and responder (bytes)
system.l2bus.pkt_size_system.cpu.icache.mem_side_port::system.l2cache.cpu_side_port        76544                       # Cumulative packet size per connected requestor and responder (bytes)
system.l2bus.pkt_size_system.cpu.dcache.mem_side_port::system.l2cache.cpu_side_port    181671040                       # Cumulative packet size per connected requestor and responder (bytes)
system.l2bus.pkt_size::total                181747584                       # Cumulative packet size per connected requestor and responder (bytes)
system.l2bus.snoops                           1418374                       # Total snoops (count)
system.l2bus.snoopTraffic                    89818880                       # Total snoop traffic (bytes)
system.l2bus.snoop_fanout::samples            2839477                       # Request fanout histogram
system.l2bus.snoop_fanout::mean              0.005044                       # Request fanout histogram
system.l2bus.snoop_fanout::stdev             0.070843                       # Request fanout histogram
system.l2bus.snoop_fanout::underflows               0      0.00%      0.00% # Request fanout histogram
system.l2bus.snoop_fanout::0                  2825154     99.50%     99.50% # Request fanout histogram
system.l2bus.snoop_fanout::1                    14323      0.50%    100.00% # Request fanout histogram
system.l2bus.snoop_fanout::2                        0      0.00%    100.00% # Request fanout histogram
system.l2bus.snoop_fanout::overflows                0      0.00%    100.00% # Request fanout histogram
system.l2bus.snoop_fanout::min_value                0                       # Request fanout histogram
system.l2bus.snoop_fanout::max_value                1                       # Request fanout histogram
system.l2bus.snoop_fanout::total              2839477                       # Request fanout histogram
system.l2bus.power_state.pwrStateResidencyTicks::UNDEFINED 203635170000                       # Cumulative time (in ticks) in various power states
system.l2bus.reqLayer0.occupancy           5678341000                       # Layer occupancy (ticks)
system.l2bus.reqLayer0.utilization                2.8                       # Layer utilization (%)
system.l2bus.respLayer0.occupancy             3597000                       # Layer occupancy (ticks)
system.l2bus.respLayer0.utilization               0.0                       # Layer utilization (%)
system.l2bus.respLayer1.occupancy          4259717000                       # Layer occupancy (ticks)
system.l2bus.respLayer1.utilization               2.1                       # Layer utilization (%)
system.l2cache.demand_hits::.cpu.inst             102                       # number of demand (read+write) hits
system.l2cache.demand_hits::.cpu.data               2                       # number of demand (read+write) hits
system.l2cache.demand_hits::total                 104                       # number of demand (read+write) hits
system.l2cache.overall_hits::.cpu.inst            102                       # number of overall hits
system.l2cache.overall_hits::.cpu.data              2                       # number of overall hits
system.l2cache.overall_hits::total                104                       # number of overall hits
system.l2cache.demand_misses::.cpu.inst          1095                       # number of demand (read+write) misses
system.l2cache.demand_misses::.cpu.data       1419902                       # number of demand (read+write) misses
system.l2cache.demand_misses::total           1420997                       # number of demand (read+write) misses
system.l2cache.overall_misses::.cpu.inst         1095                       # number of overall misses
system.l2cache.overall_misses::.cpu.data      1419902                       # number of overall misses
system.l2cache.overall_misses::total          1420997                       # number of overall misses
system.l2cache.demand_miss_latency::.cpu.inst    111088000                       # number of demand (read+write) miss cycles
system.l2cache.demand_miss_latency::.cpu.data 143405443000                       # number of demand (read+write) miss cycles
system.l2cache.demand_miss_latency::total 143516531000                       # number of demand (read+write) miss cycles
system.l2cache.overall_miss_latency::.cpu.inst    111088000                       # number of overall miss cycles
system.l2cache.overall_miss_latency::.cpu.data 143405443000                       # number of overall miss cycles
system.l2cache.overall_miss_latency::total 143516531000                       # number of overall miss cycles
system.l2cache.demand_accesses::.cpu.inst         1197                       # number of demand (read+write) accesses
system.l2cache.demand_accesses::.cpu.data      1419904                       # number of demand (read+write) accesses
system.l2cache.demand_accesses::total         1421101                       # number of demand (read+write) accesses
system.l2cache.overall_accesses::.cpu.inst         1197                       # number of overall (read+write) accesses
system.l2cache.overall_accesses::.cpu.data      1419904                       # number of overall (read+write) accesses
system.l2cache.overall_accesses::total        1421101                       # number of overall (read+write) accesses
system.l2cache.demand_miss_rate::.cpu.inst     0.914787                       # miss rate for demand accesses
system.l2cache.demand_miss_rate::.cpu.data     0.999999                       # miss rate for demand accesses
system.l2cache.demand_miss_rate::total       0.999927                       # miss rate for demand accesses
system.l2cache.overall_miss_rate::.cpu.inst     0.914787                       # miss rate for overall accesses
system.l2cache.overall_miss_rate::.cpu.data     0.999999                       # miss rate for overall accesses
system.l2cache.overall_miss_rate::total      0.999927                       # miss rate for overall accesses
system.l2cache.demand_avg_miss_latency::.cpu.inst 101450.228311                       # average overall miss latency
system.l2cache.demand_avg_miss_latency::.cpu.data 100996.718788                       # average overall miss latency
system.l2cache.demand_avg_miss_latency::total 100997.068256                       # average overall miss latency
system.l2cache.overall_avg_miss_latency::.cpu.inst 101450.228311                       # average overall miss latency
system.l2cache.overall_avg_miss_latency::.cpu.data 100996.718788                       # average overall miss latency
system.l2cache.overall_avg_miss_latency::total 100997.068256                       # average overall miss latency
system.l2cache.blocked_cycles::no_mshrs             0                       # number of cycles access was blocked
system.l2cache.blocked_cycles::no_targets            0                       # number of cycles access was blocked
system.l2cache.blocked::no_mshrs                    0                       # number of cycles access was blocked
[...]
system.mem_ctrl.requestorReadRate::.cpu.data 446257530.072040081024                       # Per-requestor bytes read from memory rate (Bytes/sec)
system.mem_ctrl.requestorWriteRate::.writebacks 441111385.621648728848                       # Per-requestor bytes write to memory rate (Bytes/sec)
system.mem_ctrl.requestorReadAccesses::.cpu.inst         1094                       # Per-requestor read serviced memory accesses
system.mem_ctrl.requestorReadAccesses::.cpu.data      1419902                       # Per-requestor read serviced memory accesses
system.mem_ctrl.requestorWriteAccesses::.writebacks      1403554                       # Per-requestor write serviced memory accesses
system.mem_ctrl.requestorReadTotalLat::.cpu.inst     33037250                       # Per-requestor read total memory access latency
system.mem_ctrl.requestorReadTotalLat::.cpu.data  42216535500                       # Per-requestor read total memory access latency
system.mem_ctrl.requestorWriteTotalLat::.writebacks 4942173403500                       # Per-requestor write total memory access latency
system.mem_ctrl.requestorReadAvgLat::.cpu.inst     30198.58                       # Per-requestor read average memory access latency
system.mem_ctrl.requestorReadAvgLat::.cpu.data     29732.01                       # Per-requestor read average memory access latency
system.mem_ctrl.requestorWriteAvgLat::.writebacks   3521185.08                       # Per-requestor write average memory access latency
system.mem_ctrl.dram.bytes_read::.cpu.inst        70016                       # Number of bytes read from this memory
system.mem_ctrl.dram.bytes_read::.cpu.data     90873728                       # Number of bytes read from this memory
system.mem_ctrl.dram.bytes_read::total       90943744                       # Number of bytes read from this memory
system.mem_ctrl.dram.bytes_inst_read::.cpu.inst        70016                       # Number of instructions bytes read from this memory
system.mem_ctrl.dram.bytes_inst_read::total        70016                       # Number of instructions bytes read from this memory
system.mem_ctrl.dram.bytes_written::.writebacks     89827456                       # Number of bytes written to this memory
system.mem_ctrl.dram.bytes_written::total     89827456                       # Number of bytes written to this memory
system.mem_ctrl.dram.num_reads::.cpu.inst         1094                       # Number of read requests responded to by this memory
system.mem_ctrl.dram.num_reads::.cpu.data      1419902                       # Number of read requests responded to by this memory
system.mem_ctrl.dram.num_reads::total         1420996                       # Number of read requests responded to by this memory
system.mem_ctrl.dram.num_writes::.writebacks      1403554                       # Number of write requests responded to by this memory
system.mem_ctrl.dram.num_writes::total        1403554                       # Number of write requests responded to by this memory
system.mem_ctrl.dram.bw_read::.cpu.inst        343831                       # Total read bandwidth from this memory (bytes/s)
system.mem_ctrl.dram.bw_read::.cpu.data     446257530                       # Total read bandwidth from this memory (bytes/s)
system.mem_ctrl.dram.bw_read::total         446601361                       # Total read bandwidth from this memory (bytes/s)
system.mem_ctrl.dram.bw_inst_read::.cpu.inst       343831                       # Instruction read bandwidth from this memory (bytes/s)
system.mem_ctrl.dram.bw_inst_read::total       343831                       # Instruction read bandwidth from this memory (bytes/s)
system.mem_ctrl.dram.bw_write::.writebacks    441119557                       # Write bandwidth from this memory (bytes/s)
system.mem_ctrl.dram.bw_write::total        441119557                       # Write bandwidth from this memory (bytes/s)
system.mem_ctrl.dram.bw_total::.writebacks    441119557                       # Total bandwidth to/from this memory (bytes/s)
system.mem_ctrl.dram.bw_total::.cpu.inst       343831                       # Total bandwidth to/from this memory (bytes/s)
system.mem_ctrl.dram.bw_total::.cpu.data    446257530                       # Total bandwidth to/from this memory (bytes/s)
system.mem_ctrl.dram.bw_total::total        887720918                       # Total bandwidth to/from this memory (bytes/s)
system.mem_ctrl.dram.readBursts               1420996                       # Number of DRAM read bursts
system.mem_ctrl.dram.writeBursts              1403528                       # Number of DRAM write bursts
system.mem_ctrl.dram.perBankRdBursts::0         88827                       # Per bank write bursts
system.mem_ctrl.dram.perBankRdBursts::1         88754                       # Per bank write bursts
system.mem_ctrl.dram.perBankRdBursts::2         88801                       # Per bank write bursts
system.mem_ctrl.dram.perBankRdBursts::3         88799                       # Per bank write bursts
system.mem_ctrl.dram.perBankRdBursts::4         88838                       # Per bank write bursts
system.mem_ctrl.dram.perBankRdBursts::5         88743                       # Per bank write bursts
system.mem_ctrl.dram.perBankRdBursts::6         88847                       # Per bank write bursts
system.mem_ctrl.dram.perBankRdBursts::7         88785                       # Per bank write bursts
system.mem_ctrl.dram.perBankRdBursts::8         88870                       # Per bank write bursts
system.mem_ctrl.dram.perBankRdBursts::9         88874                       # Per bank write bursts
system.mem_ctrl.dram.perBankRdBursts::10        88860                       # Per bank write bursts
system.mem_ctrl.dram.perBankRdBursts::11        88784                       # Per bank write bursts
system.mem_ctrl.dram.perBankRdBursts::12        88813                       # Per bank write bursts
system.mem_ctrl.dram.perBankRdBursts::13        88804                       # Per bank write bursts
system.mem_ctrl.dram.perBankRdBursts::14        88799                       # Per bank write bursts
system.mem_ctrl.dram.perBankRdBursts::15        88798                       # Per bank write bursts
system.mem_ctrl.dram.perBankWrBursts::0         87703                       # Per bank write bursts
system.mem_ctrl.dram.perBankWrBursts::1         87688                       # Per bank write bursts
system.mem_ctrl.dram.perBankWrBursts::2         87691                       # Per bank write bursts
system.mem_ctrl.dram.perBankWrBursts::3         87694                       # Per bank write bursts
system.mem_ctrl.dram.perBankWrBursts::4         87687                       # Per bank write bursts
system.mem_ctrl.dram.perBankWrBursts::5         87681                       # Per bank write bursts
system.mem_ctrl.dram.perBankWrBursts::6         87692                       # Per bank write bursts
system.mem_ctrl.dram.perBankWrBursts::7         87704                       # Per bank write bursts
system.mem_ctrl.dram.perBankWrBursts::8         87733                       # Per bank write bursts
system.mem_ctrl.dram.perBankWrBursts::9         87769                       # Per bank write bursts
system.mem_ctrl.dram.perBankWrBursts::10        87825                       # Per bank write bursts
system.mem_ctrl.dram.perBankWrBursts::11        87733                       # Per bank write bursts
system.mem_ctrl.dram.perBankWrBursts::12        87747                       # Per bank write bursts
system.mem_ctrl.dram.perBankWrBursts::13        87717                       # Per bank write bursts
system.mem_ctrl.dram.perBankWrBursts::14        87732                       # Per bank write bursts
system.mem_ctrl.dram.perBankWrBursts::15        87732                       # Per bank write bursts
system.mem_ctrl.dram.totQLat              15605897750                       # Total ticks spent queuing
system.mem_ctrl.dram.totBusLat             7104980000                       # Total ticks spent in databus transfers
system.mem_ctrl.dram.totMemAccLat         42249572750                       # Total ticks spent from burst creation until serviced by the DRAM
system.mem_ctrl.dram.avgQLat                 10982.37                       # Average queueing delay per DRAM burst
system.mem_ctrl.dram.avgBusLat                5000.00                       # Average bus latency per DRAM burst
system.mem_ctrl.dram.avgMemAccLat            29732.37                       # Average memory access latency per DRAM burst
system.mem_ctrl.dram.readRowHits              1291709                       # Number of row buffer hits during reads
system.mem_ctrl.dram.writeRowHits             1289304                       # Number of row buffer hits during writes
system.mem_ctrl.dram.readRowHitRate             90.90                       # Row buffer hit rate for reads
system.mem_ctrl.dram.writeRowHitRate            91.86                       # Row buffer hit rate for writes
system.mem_ctrl.dram.bytesPerActivate::samples       243507                       # Bytes accessed per row activation
system.mem_ctrl.dram.bytesPerActivate::mean   742.355793                       # Bytes accessed per row activation
system.mem_ctrl.dram.bytesPerActivate::gmean   566.465903                       # Bytes accessed per row activation
system.mem_ctrl.dram.bytesPerActivate::stdev   364.465209                       # Bytes accessed per row activation
system.mem_ctrl.dram.bytesPerActivate::0-127        23864      9.80%      9.80% # Bytes accessed per row activation
system.mem_ctrl.dram.bytesPerActivate::128-255        18333      7.53%     17.33% # Bytes accessed per row activation
system.mem_ctrl.dram.bytesPerActivate::256-383        11956      4.91%     22.24% # Bytes accessed per row activation
system.mem_ctrl.dram.bytesPerActivate::384-511        11525      4.73%     26.97% # Bytes accessed per row activation
system.mem_ctrl.dram.bytesPerActivate::512-639        12969      5.33%     32.30% # Bytes accessed per row activation
system.mem_ctrl.dram.bytesPerActivate::640-767         9442      3.88%     36.18% # Bytes accessed per row activation
system.mem_ctrl.dram.bytesPerActivate::768-895         9721      3.99%     40.17% # Bytes accessed per row activation
system.mem_ctrl.dram.bytesPerActivate::896-1023        26551     10.90%     51.07% # Bytes accessed per row activation
system.mem_ctrl.dram.bytesPerActivate::1024-1151       119146     48.93%    100.00% # Bytes accessed per row activation
system.mem_ctrl.dram.bytesPerActivate::total       243507                       # Bytes accessed per row activation
system.mem_ctrl.dram.bytesRead               90943744                       # Total number of bytes read from DRAM
system.mem_ctrl.dram.bytesWritten            89825792                       # Total number of bytes written to DRAM
system.mem_ctrl.dram.avgRdBW               446.601361                       # Average DRAM read bandwidth in MiBytes/s
system.mem_ctrl.dram.avgWrBW               441.111386                       # Average DRAM write bandwidth in MiBytes/s
system.mem_ctrl.dram.peakBW                  12800.00                       # Theoretical peak bandwidth in MiByte/s
system.mem_ctrl.dram.busUtil                     6.94                       # Data bus utilization in percentage
system.mem_ctrl.dram.busUtilRead                 3.49                       # Data bus utilization in percentage for reads
system.mem_ctrl.dram.busUtilWrite                3.45                       # Data bus utilization in percentage for writes
system.mem_ctrl.dram.pageHitRate                91.38                       # Row buffer hit rate, read and write combined
system.mem_ctrl.dram.power_state.pwrStateResidencyTicks::UNDEFINED 203635170000                       # Cumulative time (in ticks) in various power states
system.mem_ctrl.dram.rank0.actEnergy        867824160                       # Energy for activate commands per rank (pJ)
system.mem_ctrl.dram.rank0.preEnergy        461259480                       # Energy for precharge commands per rank (pJ)
system.mem_ctrl.dram.rank0.readEnergy      5072213160                       # Energy for read commands per rank (pJ)
system.mem_ctrl.dram.rank0.writeEnergy     3662038800                       # Energy for write commands per rank (pJ)
system.mem_ctrl.dram.rank0.refreshEnergy 16074679920.000002                       # Energy for refresh commands per rank (pJ)
system.mem_ctrl.dram.rank0.actBackEnergy  56999530890                       # Energy for active background per rank (pJ)
system.mem_ctrl.dram.rank0.preBackEnergy  30196300320                       # Energy for precharge background per rank (pJ)
system.mem_ctrl.dram.rank0.actPowerDownEnergy            0                       # Energy for active power-down per rank (pJ)
system.mem_ctrl.dram.rank0.prePowerDownEnergy            0                       # Energy for precharge power-down per rank (pJ)
system.mem_ctrl.dram.rank0.selfRefreshEnergy            0                       # Energy for self refresh per rank (pJ)
system.mem_ctrl.dram.rank0.totalEnergy   113333846730                       # Total energy per rank (pJ)
system.mem_ctrl.dram.rank0.averagePower    556.553402                       # Core power per rank (mW)
system.mem_ctrl.dram.rank0.totalIdleTime            0                       # Total Idle time Per DRAM Rank
system.mem_ctrl.dram.rank0.pwrStateTime::IDLE  77161999500                       # Time in different power states
system.mem_ctrl.dram.rank0.pwrStateTime::REF   6799780000                       # Time in different power states
system.mem_ctrl.dram.rank0.pwrStateTime::SREF            0                       # Time in different power states
system.mem_ctrl.dram.rank0.pwrStateTime::PRE_PDN            0                       # Time in different power states
system.mem_ctrl.dram.rank0.pwrStateTime::ACT 119673390500                       # Time in different power states
system.mem_ctrl.dram.rank0.pwrStateTime::ACT_PDN            0                       # Time in different power states
system.mem_ctrl.dram.rank1.actEnergy        870844380                       # Energy for activate commands per rank (pJ)
system.mem_ctrl.dram.rank1.preEnergy        462849585                       # Energy for precharge commands per rank (pJ)
system.mem_ctrl.dram.rank1.readEnergy      5073698280                       # Energy for read commands per rank (pJ)
system.mem_ctrl.dram.rank1.writeEnergy     3664377360                       # Energy for write commands per rank (pJ)
system.mem_ctrl.dram.rank1.refreshEnergy 16074679920.000002                       # Energy for refresh commands per rank (pJ)
system.mem_ctrl.dram.rank1.actBackEnergy  56974101480                       # Energy for active background per rank (pJ)
system.mem_ctrl.dram.rank1.preBackEnergy  30217714560                       # Energy for precharge background per rank (pJ)
system.mem_ctrl.dram.rank1.actPowerDownEnergy            0                       # Energy for active power-down per rank (pJ)
system.mem_ctrl.dram.rank1.prePowerDownEnergy            0                       # Energy for precharge power-down per rank (pJ)
system.mem_ctrl.dram.rank1.selfRefreshEnergy            0                       # Energy for self refresh per rank (pJ)
system.mem_ctrl.dram.rank1.totalEnergy   113338265565                       # Total energy per rank (pJ)
system.mem_ctrl.dram.rank1.averagePower    556.575102                       # Core power per rank (mW)
system.mem_ctrl.dram.rank1.totalIdleTime            0                       # Total Idle time Per DRAM Rank
system.mem_ctrl.dram.rank1.pwrStateTime::IDLE  77213696250                       # Time in different power states
system.mem_ctrl.dram.rank1.pwrStateTime::REF   6799780000                       # Time in different power states
system.mem_ctrl.dram.rank1.pwrStateTime::SREF            0                       # Time in different power states
system.mem_ctrl.dram.rank1.pwrStateTime::PRE_PDN            0                       # Time in different power states
system.mem_ctrl.dram.rank1.pwrStateTime::ACT 119621693750                       # Time in different power states
system.mem_ctrl.dram.rank1.pwrStateTime::ACT_PDN            0                       # Time in different power states
system.mem_ctrl.power_state.pwrStateResidencyTicks::UNDEFINED 203635170000                       # Cumulative time (in ticks) in various power states
system.membus.trans_dist::ReadResp            1353119                       # Transaction distribution
system.membus.trans_dist::WritebackDirty      1403554                       # Transaction distribution
system.membus.trans_dist::CleanEvict              959                       # Transaction distribution
system.membus.trans_dist::ReadExReq             67877                       # Transaction distribution
system.membus.trans_dist::ReadExResp            67877                       # Transaction distribution
system.membus.trans_dist::ReadSharedReq       1353119                       # Transaction distribution
system.membus.pkt_count_system.l2cache.mem_side_port::system.mem_ctrl.port      4246505                       # Packet count per connected requestor and responder (bytes)
system.membus.pkt_count_system.l2cache.mem_side_port::total      4246505                       # Packet count per connected requestor and responder (bytes)
system.membus.pkt_count::total                4246505                       # Packet count per connected requestor and responder (bytes)
system.membus.pkt_size_system.l2cache.mem_side_port::system.mem_ctrl.port    180771200                       # Cumulative packet size per connected requestor and responder (bytes)
system.membus.pkt_size_system.l2cache.mem_side_port::total    180771200                       # Cumulative packet size per connected requestor and responder (bytes)
system.membus.pkt_size::total               180771200                       # Cumulative packet size per connected requestor and responder (bytes)
system.membus.snoops                                0                       # Total snoops (count)
system.membus.snoopTraffic                          0                       # Total snoop traffic (bytes)
system.membus.snoop_fanout::samples           1420996                       # Request fanout histogram
system.membus.snoop_fanout::mean                    0                       # Request fanout histogram
system.membus.snoop_fanout::stdev                   0                       # Request fanout histogram
system.membus.snoop_fanout::underflows              0      0.00%      0.00% # Request fanout histogram
system.membus.snoop_fanout::0                 1420996    100.00%    100.00% # Request fanout histogram
system.membus.snoop_fanout::1                       0      0.00%    100.00% # Request fanout histogram
system.membus.snoop_fanout::overflows               0      0.00%    100.00% # Request fanout histogram
system.membus.snoop_fanout::min_value               0                       # Request fanout histogram
system.membus.snoop_fanout::max_value               0                       # Request fanout histogram
system.membus.snoop_fanout::total             1420996                       # Request fanout histogram
system.membus.power_state.pwrStateResidencyTicks::UNDEFINED 203635170000                       # Cumulative time (in ticks) in various power states
system.membus.reqLayer2.occupancy          8439725000                       # Layer occupancy (ticks)
system.membus.reqLayer2.utilization               4.1                       # Layer utilization (%)
system.membus.respLayer0.occupancy         7481143250                       # Layer occupancy (ticks)
system.membus.respLayer0.utilization              3.7                       # Layer utilization (%)

---------- End Simulation Statistics   ----------
