
---------- Begin Simulation Statistics ----------
final_tick                               2376127939000                       # Number of ticks from beginning of simulation (restored from checkpoints and never reset)
host_inst_rate                                 450752                       # Simulator instruction rate (inst/s)
host_mem_usage                                 674440                       # Number of bytes of host memory used
host_op_rate                                   660397                       # Simulator op (including micro ops) rate (op/s)
host_seconds                                  1167.33                       # Real time elapsed on the host
host_tick_rate                             2035518661                       # Simulator tick rate (ticks/s)
sim_freq                                 1000000000000                       # Frequency of simulated ticks
sim_insts                                   526177548                       # Number of instructions simulated
sim_ops                                     770903492                       # Number of ops (including micro ops) simulated
sim_seconds                                  2.376128                       # Number of seconds simulated
sim_ticks                                2376127939000                       # Number of ticks simulated
system.cpu.Branches                           3021881                       # Number of branches fetched
system.cpu.committedInsts                   526177548                       # Number of instructions committed
system.cpu.committedOps                     770903492                       # Number of ops (including micro ops) committed
system.cpu.idle_fraction                     0.000000                       # Percentage of idle cycles
system.cpu.not_idle_fraction                 1.000000                       # Percentage of non-idle cycles
system.cpu.numCycles                       2376127939                       # number of cpu cycles simulated
system.cpu.numWorkItemsCompleted                    0                       # number of work items this cpu completed
system.cpu.numWorkItemsStarted                      0                       # number of work items this cpu started
system.cpu.num_busy_cycles               2376127938.999000                       # Number of busy cycles
system.cpu.num_cc_register_reads              8346313                       # number of times the CC registers were read
system.cpu.num_cc_register_writes            12896239                       # number of times the CC registers were written
system.cpu.num_conditional_control_insts      1622627                       # number of instructions that are conditional controls
system.cpu.num_fp_alu_accesses              724171277                       # Number of float alu accesses
system.cpu.num_fp_insts                     724171277                       # number of float instructions
system.cpu.num_fp_register_reads           1031628202                       # number of times the floating registers were read
system.cpu.num_fp_register_writes           638978695                       # number of times the floating registers were written
system.cpu.num_func_calls                     1356000                       # number of times a function call or return occured
system.cpu.num_idle_cycles                   0.001000                       # Number of idle cycles
system.cpu.num_int_alu_accesses             281643665                       # Number of integer alu accesses
system.cpu.num_int_insts                    281643665                       # number of integer instructions
system.cpu.num_int_register_reads           783869703                       # number of times the integer registers were read
system.cpu.num_int_register_writes           35235359                       # number of times the integer registers were written
system.cpu.num_load_insts                   151055025                       # Number of load instructions
system.cpu.num_mem_refs                     244655430                       # number of memory refs
system.cpu.num_store_insts                   93600405                       # Number of store instructions
system.cpu.num_vec_alu_accesses                     0                       # Number of vector alu accesses
system.cpu.num_vec_insts                            0                       # number of vector instructions
system.cpu.num_vec_register_reads                   0                       # number of times the vector registers were read
system.cpu.num_vec_register_writes                  0                       # number of times the vector registers were written
system.cpu.op_class::No_OpClass                122350      0.02%      0.02% # Class of executed instruction
system.cpu.op_class::IntAlu                 156847661     20.35%     20.36% # Class of executed instruction
system.cpu.op_class::IntMult                    38307      0.00%     20.37% # Class of executed instruction
system.cpu.op_class::IntDiv                       588      0.00%     20.37% # Class of executed instruction
system.cpu.op_class::FloatAdd               129162355     16.75%     37.12% # Class of executed instruction
system.cpu.op_class::FloatCmp                       0      0.00%     37.12% # Class of executed instruction
system.cpu.op_class::FloatCvt                       0      0.00%     37.12% # Class of executed instruction
system.cpu.op_class::FloatMult                      0      0.00%     37.12% # Class of executed instruction
system.cpu.op_class::FloatMultAcc                   0      0.00%     37.12% # Class of executed instruction
system.cpu.op_class::FloatDiv                       0      0.00%     37.12% # Class of executed instruction
system.cpu.op_class::FloatMisc                      0      0.00%     37.12% # Class of executed instruction
system.cpu.op_class::FloatSqrt                      0      0.00%     37.12% # Class of executed instruction
system.cpu.op_class::SimdAdd                      104      0.00%     37.12% # Class of executed instruction
system.cpu.op_class::SimdAddAcc                     0      0.00%     37.12% # Class of executed instruction
system.cpu.op_class::SimdAlu                 13572619      1.76%     38.88% # Class of executed instruction
system.cpu.op_class::SimdCmp                       18      0.00%     38.88% # Class of executed instruction
system.cpu.op_class::SimdCvt                     1518      0.00%     38.88% # Class of executed instruction
system.cpu.op_class::SimdMisc                   18290      0.00%     38.88% # Class of executed instruction
system.cpu.op_class::SimdMult                       0      0.00%     38.88% # Class of executed instruction
system.cpu.op_class::SimdMultAcc                    0      0.00%     38.88% # Class of executed instruction
system.cpu.op_class::SimdShift                    156      0.00%     38.88% # Class of executed instruction
system.cpu.op_class::SimdShiftAcc                   0      0.00%     38.88% # Class of executed instruction
system.cpu.op_class::SimdDiv                        0      0.00%     38.88% # Class of executed instruction
system.cpu.op_class::SimdSqrt                       0      0.00%     38.88% # Class of executed instruction
system.cpu.op_class::SimdFloatAdd           100487583     13.04%     51.92% # Class of executed instruction
system.cpu.op_class::SimdFloatAlu                   0      0.00%     51.92% # Class of executed instruction
system.cpu.op_class::SimdFloatCmp                   0      0.00%     51.92% # Class of executed instruction
system.cpu.op_class::SimdFloatCvt               11622      0.00%     51.92% # Class of executed instruction
system.cpu.op_class::SimdFloatDiv             1355195      0.18%     52.10% # Class of executed instruction
system.cpu.op_class::SimdFloatMisc                  0      0.00%     52.10% # Class of executed instruction
system.cpu.op_class::SimdFloatMult          124629795     16.17%     68.26% # Class of executed instruction
system.cpu.op_class::SimdFloatMultAcc               0      0.00%     68.26% # Class of executed instruction
system.cpu.op_class::SimdFloatSqrt                 10      0.00%     68.26% # Class of executed instruction
system.cpu.op_class::SimdReduceAdd                  0      0.00%     68.26% # Class of executed instruction
system.cpu.op_class::SimdReduceAlu                  0      0.00%     68.26% # Class of executed instruction
system.cpu.op_class::SimdReduceCmp                  0      0.00%     68.26% # Class of executed instruction
system.cpu.op_class::SimdFloatReduceAdd             0      0.00%     68.26% # Class of executed instruction
system.cpu.op_class::SimdFloatReduceCmp             0      0.00%     68.26% # Class of executed instruction
system.cpu.op_class::SimdAes                        0      0.00%     68.26% # Class of executed instruction
system.cpu.op_class::SimdAesMix                     0      0.00%     68.26% # Class of executed instruction
system.cpu.op_class::SimdSha1Hash                   0      0.00%     68.26% # Class of executed instruction
system.cpu.op_class::SimdSha1Hash2                  0      0.00%     68.26% # Class of executed instruction
system.cpu.op_class::SimdSha256Hash                 0      0.00%     68.26% # Class of executed instruction
system.cpu.op_class::SimdSha256Hash2                0      0.00%     68.26% # Class of executed instruction
system.cpu.op_class::SimdShaSigma2                  0      0.00%     68.26% # Class of executed instruction
system.cpu.op_class::SimdShaSigma3                  0      0.00%     68.26% # Class of executed instruction
system.cpu.op_class::SimdPredAlu                    0      0.00%     68.26% # Class of executed instruction
system.cpu.op_class::MemRead                  1225878      0.16%     68.42% # Class of executed instruction
system.cpu.op_class::MemWrite                 8411186      1.09%     69.51% # Class of executed instruction
system.cpu.op_class::FloatMemRead           149829147     19.44%     88.95% # Class of executed instruction
system.cpu.op_class::FloatMemWrite           85189219     11.05%    100.00% # Class of executed instruction
system.cpu.op_class::IprAccess                      0      0.00%    100.00% # Class of executed instruction
system.cpu.op_class::InstPrefetch                   0      0.00%    100.00% # Class of executed instruction
system.cpu.op_class::total                  770903601                       # Class of executed instruction
system.cpu.workload.numSyscalls                    85                       # Number of system calls
system.l2bus.snoop_filter.hit_multi_requests            0                       # Number of requests hitting in the snoop filter with multiple (>1) holders of the requested data.
system.l2bus.snoop_filter.hit_multi_snoops            0                       # Number of snoops hitting in the snoop filter with multiple (>1) holders of the requested data.
system.l2bus.snoop_filter.hit_single_requests      4513447                       # Number of requests hitting in the snoop filter with a single holder of the requested data.
system.l2bus.snoop_filter.hit_single_snoops       433795                       # Number of snoops hitting in the snoop filter with a single holder of the requested data.
system.l2bus.snoop_filter.tot_requests        9028174                       # Total number of requests made to the snoop filter.
system.l2bus.snoop_filter.tot_snoops           433795                       # Total number of snoops made to the snoop filter.
system.membus.snoop_filter.hit_multi_requests            0                       # Number of requests hitting in the snoop filter with multiple (>1) holders of the requested data.
system.membus.snoop_filter.hit_multi_snoops            0                       # Number of snoops hitting in the snoop filter with multiple (>1) holders of the requested data.
system.membus.snoop_filter.hit_single_requests      1103385                       # Number of requests hitting in the snoop filter with a single holder of the requested data.
system.membus.snoop_filter.hit_single_snoops            0                       # Number of snoops hitting in the snoop filter with a single holder of the requested data.
system.membus.snoop_filter.tot_requests       2209204                       # Total number of requests made to the snoop filter.
system.membus.snoop_filter.tot_snoops               0                       # Total number of snoops made to the snoop filter.
system.clk_domain.clock                          1000                       # Clock period in ticks
system.clk_domain.voltage_domain.voltage            1                       # Voltage in Volts
system.cpu.dcache.demand_hits::.cpu.data    243143456                       # number of demand (read+write) hits
system.cpu.dcache.demand_hits::total        243143456                       # number of demand (read+write) hits
system.cpu.dcache.overall_hits::.cpu.data    243143456                       # number of overall hits
system.cpu.dcache.overall_hits::total       243143456                       # number of overall hits
system.cpu.dcache.demand_misses::.cpu.data      1512015                       # number of demand (read+write) misses
system.cpu.dcache.demand_misses::total        1512015                       # number of demand (read+write) misses
system.cpu.dcache.overall_misses::.cpu.data      1512015                       # number of overall misses
system.cpu.dcache.overall_misses::total       1512015                       # number of overall misses
system.cpu.dcache.demand_miss_latency::.cpu.data 123537796000                       # number of demand (read+write) miss cycles
system.cpu.dcache.demand_miss_latency::total 123537796000                       # number of demand (read+write) miss cycles
system.cpu.dcache.overall_miss_latency::.cpu.data 123537796000                       # number of overall miss cycles
system.cpu.dcache.overall_miss_latency::total 123537796000                       # number of overall miss cycles
system.cpu.dcache.demand_accesses::.cpu.data    244655471                       # number of demand (read+write) accesses
system.cpu.dcache.demand_accesses::total    244655471                       # number of demand (read+write) accesses
system.cpu.dcache.overall_accesses::.cpu.data    244655471                       # number of overall (read+write) accesses
system.cpu.dcache.overall_accesses::total    244655471                       # number of overall (read+write) accesses
system.cpu.dcache.demand_miss_rate::.cpu.data     0.006180                       # miss rate for demand accesses
system.cpu.dcache.demand_miss_rate::total     0.006180                       # miss rate for demand accesses
system.cpu.dcache.overall_miss_rate::.cpu.data     0.006180                       # miss rate for overall accesses
system.cpu.dcache.overall_miss_rate::total     0.006180                       # miss rate for overall accesses
system.cpu.dcache.demand_avg_miss_latency::.cpu.data 81704.080978                       # average overall miss latency
system.cpu.dcache.demand_avg_miss_latency::total 81704.080978                       # average overall miss latency
system.cpu.dcache.overall_avg_miss_latency::.cpu.data 81704.080978                       # average overall miss latency
system.cpu.dcache.overall_avg_miss_latency::total 81704.080978                       # average overall miss latency
system.cpu.dcache.blocked_cycles::no_mshrs            0                       # number of cycles access was blocked
system.cpu.dcache.blocked_cycles::no_targets            0                       # number of cycles access was blocked
system.cpu.dcache.blocked::no_mshrs                 0                       # number of cycles access was blocked
system.cpu.dcache.blocked::no_targets               0                       # number of cycles access was blocked
system.cpu.dcache.avg_blocked_cycles::no_mshrs          nan                       # average number of cycles each access was blocked
system.cpu.dcache.avg_blocked_cycles::no_targets          nan                       # average number of cycles each access was blocked
system.cpu.dcache.writebacks::.writebacks       633152                       # number of writebacks
system.cpu.dcache.writebacks::total            633152                       # number of writebacks
system.cpu.dcache.demand_mshr_misses::.cpu.data      1512015                       # number of demand (read+write) MSHR misses
system.cpu.dcache.demand_mshr_misses::total      1512015                       # number of demand (read+write) MSHR misses
system.cpu.dcache.overall_mshr_misses::.cpu.data      1512015                       # number of overall MSHR misses
system.cpu.dcache.overall_mshr_misses::total      1512015                       # number of overall MSHR misses
system.cpu.dcache.demand_mshr_miss_latency::.cpu.data 120513766000                       # number of demand (read+write) MSHR miss cycles
system.cpu.dcache.demand_mshr_miss_latency::total 120513766000                       # number of demand (read+write) MSHR miss cycles
system.cpu.dcache.overall_mshr_miss_latency::.cpu.data 120513766000                       # number of overall MSHR miss cycles
system.cpu.dcache.overall_mshr_miss_latency::total 120513766000                       # number of overall MSHR miss cycles
system.cpu.dcache.demand_mshr_miss_rate::.cpu.data     0.006180                       # mshr miss rate for demand accesses
system.cpu.dcache.demand_mshr_miss_rate::total     0.006180                       # mshr miss rate for demand accesses
system.cpu.dcache.overall_mshr_miss_rate::.cpu.data     0.006180                       # mshr miss rate for overall accesses
system.cpu.dcache.overall_mshr_miss_rate::total     0.006180                       # mshr miss rate for overall accesses
system.cpu.dcache.demand_avg_mshr_miss_latency::.cpu.data 79704.080978                       # average overall mshr miss latency
system.cpu.dcache.demand_avg_mshr_miss_latency::total 79704.080978                       # average overall mshr miss latency
system.cpu.dcache.overall_avg_mshr_miss_latency::.cpu.data 79704.080978                       # average overall mshr miss latency
system.cpu.dcache.overall_avg_mshr_miss_latency::total 79704.080978                       # average overall mshr miss latency
system.cpu.dcache.replacements                1510991                       # number of replacements
system.cpu.dcache.ReadReq_hits::.cpu.data    149746966                       # number of ReadReq hits
system.cpu.dcache.ReadReq_hits::total       149746966                       # number of ReadReq hits
system.cpu.dcache.ReadReq_misses::.cpu.data      1308087                       # number of ReadReq misses
system.cpu.dcache.ReadReq_misses::total       1308087                       # number of ReadReq misses
system.cpu.dcache.ReadReq_miss_latency::.cpu.data 104067530000                       # number of ReadReq miss cycles
system.cpu.dcache.ReadReq_miss_latency::total 104067530000                       # number of ReadReq miss cycles
system.cpu.dcache.ReadReq_accesses::.cpu.data    151055053                       # number of ReadReq accesses(hits+misses)
system.cpu.dcache.ReadReq_accesses::total    151055053                       # number of ReadReq accesses(hits+misses)
system.cpu.dcache.ReadReq_miss_rate::.cpu.data     0.008660                       # miss rate for ReadReq accesses
system.cpu.dcache.ReadReq_miss_rate::total     0.008660                       # miss rate for ReadReq accesses
system.cpu.dcache.ReadReq_avg_miss_latency::.cpu.data 79557.040166                       # average ReadReq miss latency
system.cpu.dcache.ReadReq_avg_miss_latency::total 79557.040166                       # average ReadReq miss latency
system.cpu.dcache.ReadReq_mshr_misses::.cpu.data      1308087                       # number of ReadReq MSHR misses
system.cpu.dcache.ReadReq_mshr_misses::total      1308087                       # number of ReadReq MSHR misses
system.cpu.dcache.ReadReq_mshr_miss_latency::.cpu.data 101451356000                       # number of ReadReq MSHR miss cycles
system.cpu.dcache.ReadReq_mshr_miss_latency::total 101451356000                       # number of ReadReq MSHR miss cycles
system.cpu.dcache.ReadReq_mshr_miss_rate::.cpu.data     0.008660                       # mshr miss rate for ReadReq accesses
system.cpu.dcache.ReadReq_mshr_miss_rate::total     0.008660                       # mshr miss rate for ReadReq accesses
system.cpu.dcache.ReadReq_avg_mshr_miss_latency::.cpu.data 77557.040166                       # average ReadReq mshr miss latency
system.cpu.dcache.ReadReq_avg_mshr_miss_latency::total 77557.040166                       # average ReadReq mshr miss latency
system.cpu.dcache.WriteReq_hits::.cpu.data     93396490                       # number of WriteReq hits
system.cpu.dcache.WriteReq_hits::total       93396490                       # number of WriteReq hits
system.cpu.dcache.WriteReq_misses::.cpu.data       203928                       # number of WriteReq misses
system.cpu.dcache.WriteReq_misses::total       203928                       # number of WriteReq misses
system.cpu.dcache.WriteReq_miss_latency::.cpu.data  19470266000                       # number of WriteReq miss cycles
system.cpu.dcache.WriteReq_miss_latency::total  19470266000                       # number of WriteReq miss cycles
system.cpu.dcache.WriteReq_accesses::.cpu.data     93600418                       # number of WriteReq accesses(hits+misses)
system.cpu.dcache.WriteReq_accesses::total     93600418                       # number of WriteReq accesses(hits+misses)
system.cpu.dcache.WriteReq_miss_rate::.cpu.data     0.002179                       # miss rate for WriteReq accesses
system.cpu.dcache.WriteReq_miss_rate::total     0.002179                       # miss rate for WriteReq accesses
system.cpu.dcache.WriteReq_avg_miss_latency::.cpu.data 95476.177867                       # average WriteReq miss latency
system.cpu.dcache.WriteReq_avg_miss_latency::total 95476.177867                       # average WriteReq miss latency
system.cpu.dcache.WriteReq_mshr_misses::.cpu.data       203928                       # number of WriteReq MSHR misses
system.cpu.dcache.WriteReq_mshr_misses::total       203928                       # number of WriteReq MSHR misses
system.cpu.dcache.WriteReq_mshr_miss_latency::.cpu.data  19062410000                       # number of WriteReq MSHR miss cycles
system.cpu.dcache.WriteReq_mshr_miss_latency::total  19062410000                       # number of WriteReq MSHR miss cycles
system.cpu.dcache.WriteReq_mshr_miss_rate::.cpu.data     0.002179                       # mshr miss rate for WriteReq accesses
system.cpu.dcache.WriteReq_mshr_miss_rate::total     0.002179                       # mshr miss rate for WriteReq accesses
system.cpu.dcache.WriteReq_avg_mshr_miss_latency::.cpu.data 93476.177867                       # average WriteReq mshr miss latency
system.cpu.dcache.WriteReq_avg_mshr_miss_latency::total 93476.177867                       # average WriteReq mshr miss latency
system.cpu.dcache.power_state.pwrStateResidencyTicks::UNDEFINED 2376127939000                       # Cumulative time (in ticks) in various power states
system.cpu.dcache.tags.tagsinuse          1023.849667                       # Cycle average of tags in use
system.cpu.dcache.tags.total_refs           244655471                       # Total number of references to valid blocks.
system.cpu.dcache.tags.sampled_refs           1512015                       # Sample count of references to valid blocks.
system.cpu.dcache.tags.avg_refs            161.807569                       # Average number of references to valid blocks.
system.cpu.dcache.tags.warmup_cycle            224000                       # Cycle when the warmup percentage was hit.
system.cpu.dcache.tags.occ_blocks::.cpu.data  1023.849667                       # Average occupied blocks per requestor
system.cpu.dcache.tags.occ_percent::.cpu.data     0.999853                       # Average percentage of cache occupancy
system.cpu.dcache.tags.occ_percent::total     0.999853                       # Average percentage of cache occupancy
system.cpu.dcache.tags.occ_task_id_blocks::1024         1024                       # Occupied blocks per task id
system.cpu.dcache.tags.age_task_id_blocks_1024::0           28                       # Occupied blocks per task id
system.cpu.dcache.tags.age_task_id_blocks_1024::1           83                       # Occupied blocks per task id
system.cpu.dcache.tags.age_task_id_blocks_1024::2          498                       # Occupied blocks per task id
system.cpu.dcache.tags.age_task_id_blocks_1024::3          415                       # Occupied blocks per task id
system.cpu.dcache.tags.occ_task_id_percent::1024            1                       # Percentage of cache occupancy per task id
system.cpu.dcache.tags.tag_accesses         490822957                       # Number of tag accesses
system.cpu.dcache.tags.data_accesses        490822957                       # Number of data accesses
system.cpu.dcache.tags.power_state.pwrStateResidencyTicks::UNDEFINED 2376127939000                       # Cumulative time (in ticks) in various power states
system.cpu.dtb.rdAccesses                   151055054                       # TLB accesses on read requests
system.cpu.dtb.wrAccesses                    93600441                       # TLB accesses on write requests
system.cpu.dtb.rdMisses                          4202                       # TLB misses on read requests
system.cpu.dtb.wrMisses                          2551                       # TLB misses on write requests
system.cpu.dtb.walker.power_state.pwrStateResidencyTicks::UNDEFINED 2376127939000                       # Cumulative time (in ticks) in various power states
system.cpu.icache.demand_hits::.cpu.inst    841887646                       # number of demand (read+write) hits
system.cpu.icache.demand_hits::total        841887646                       # number of demand (read+write) hits
system.cpu.icache.overall_hits::.cpu.inst    841887646                       # number of overall hits
system.cpu.icache.overall_hits::total       841887646                       # number of overall hits
system.cpu.icache.demand_misses::.cpu.inst      3002712                       # number of demand (read+write) misses
system.cpu.icache.demand_misses::total        3002712                       # number of demand (read+write) misses
system.cpu.icache.overall_misses::.cpu.inst      3002712                       # number of overall misses
system.cpu.icache.overall_misses::total       3002712                       # number of overall misses
system.cpu.icache.demand_miss_latency::.cpu.inst  82528007000                       # number of demand (read+write) miss cycles
system.cpu.icache.demand_miss_latency::total  82528007000                       # number of demand (read+write) miss cycles
system.cpu.icache.overall_miss_latency::.cpu.inst  82528007000                       # number of overall miss cycles
system.cpu.icache.overall_miss_latency::total  82528007000                       # number of overall miss cycles
system.cpu.icache.demand_accesses::.cpu.inst    844890358                       # number of demand (read+write) accesses
system.cpu.icache.demand_accesses::total    844890358                       # number of demand (read+write) accesses
system.cpu.icache.overall_accesses::.cpu.inst    844890358                       # number of overall (read+write) accesses
system.cpu.icache.overall_accesses::total    844890358                       # number of overall (read+write) accesses
system.cpu.icache.demand_miss_rate::.cpu.inst     0.003554                       # miss rate for demand accesses
system.cpu.icache.demand_miss_rate::total     0.003554                       # miss rate for demand accesses
system.cpu.icache.overall_miss_rate::.cpu.inst     0.003554                       # miss rate for overall accesses
system.cpu.icache.overall_miss_rate::total     0.003554                       # miss rate for overall accesses
system.cpu.icache.demand_avg_miss_latency::.cpu.inst 27484.489688                       # average overall miss latency
system.cpu.icache.demand_avg_miss_latency::total 27484.489688                       # average overall miss latency
system.cpu.icache.overall_avg_miss_latency::.cpu.inst 27484.489688                       # average overall miss latency
system.cpu.icache.overall_avg_miss_latency::total 27484.489688                       # average overall miss latency
system.cpu.icache.blocked_cycles::no_mshrs            0                       # number of cycles access was blocked
system.cpu.icache.blocked_cycles::no_targets            0                       # number of cycles access was blocked
system.cpu.icache.blocked::no_mshrs                 0                       # number of cycles access was blocked
system.cpu.icache.blocked::no_targets               0                       # number of cycles access was blocked
system.cpu.icache.avg_blocked_cycles::no_mshrs          nan                       # average number of cycles each access was blocked
system.cpu.icache.avg_blocked_cycles::no_targets          nan                       # average number of cycles each access was blocked
system.cpu.icache.demand_mshr_misses::.cpu.inst      3002712                       # number of demand (read+write) MSHR misses
system.cpu.icache.demand_mshr_misses::total      3002712                       # number of demand (read+write) MSHR misses
system.cpu.icache.overall_mshr_misses::.cpu.inst      3002712                       # number of overall MSHR misses
system.cpu.icache.overall_mshr_misses::total      3002712                       # number of overall MSHR misses
system.cpu.icache.demand_mshr_miss_latency::.cpu.inst  76522583000                       # number of demand (read+write) MSHR miss cycles
system.cpu.icache.demand_mshr_miss_latency::total  76522583000                       # number of demand (read+write) MSHR miss cycles
system.cpu.icache.overall_mshr_miss_latency::.cpu.inst  76522583000                       # number of overall MSHR miss cycles
system.cpu.icache.overall_mshr_miss_latency::total  76522583000                       # number of overall MSHR miss cycles
system.cpu.icache.demand_mshr_miss_rate::.cpu.inst     0.003554                       # mshr miss rate for demand accesses
system.cpu.icache.demand_mshr_miss_rate::total     0.003554                       # mshr miss rate for demand accesses
system.cpu.icache.overall_mshr_miss_rate::.cpu.inst     0.003554                       # mshr miss rate for overall accesses
system.cpu.icache.overall_mshr_miss_rate::total     0.003554                       # mshr miss rate for overall accesses
system.cpu.icache.demand_avg_mshr_miss_latency::.cpu.inst 25484.489688                       # average overall mshr miss latency
system.cpu.icache.demand_avg_mshr_miss_latency::total 25484.489688                       # average overall mshr miss latency
system.cpu.icache.overall_avg_mshr_miss_latency::.cpu.inst 25484.489688                       # average overall mshr miss latency
system.cpu.icache.overall_avg_mshr_miss_latency::total 25484.489688                       # average overall mshr miss latency
system.cpu.icache.replacements                3002456                       # number of replacements
system.cpu.icache.ReadReq_hits::.cpu.inst    841887646                       # number of ReadReq hits
system.cpu.icache.ReadReq_hits::total       841887646                       # number of ReadReq hits
system.cpu.icache.ReadReq_misses::.cpu.inst      3002712                       # number of ReadReq misses
system.cpu.icache.ReadReq_misses::total       3002712                       # number of ReadReq misses
system.cpu.icache.ReadReq_miss_latency::.cpu.inst  82528007000                       # number of ReadReq miss cycles
system.cpu.icache.ReadReq_miss_latency::total  82528007000                       # number of ReadReq miss cycles
system.cpu.icache.ReadReq_accesses::.cpu.inst    844890358                       # number of ReadReq accesses(hits+misses)
system.cpu.icache.ReadReq_accesses::total    844890358                       # number of ReadReq accesses(hits+misses)
system.cpu.icache.ReadReq_miss_rate::.cpu.inst     0.003554                       # miss rate for ReadReq accesses
system.cpu.icache.ReadReq_miss_rate::total     0.003554                       # miss rate for ReadReq accesses
system.cpu.icache.ReadReq_avg_miss_latency::.cpu.inst 27484.489688                       # average ReadReq miss latency
system.cpu.icache.ReadReq_avg_miss_latency::total 27484.489688                       # average ReadReq miss latency
system.cpu.icache.ReadReq_mshr_misses::.cpu.inst      3002712                       # number of ReadReq MSHR misses
system.cpu.icache.ReadReq_mshr_misses::total      3002712                       # number of ReadReq MSHR misses
system.cpu.icache.ReadReq_mshr_miss_latency::.cpu.inst  76522583000                       # number of ReadReq MSHR miss cycles
system.cpu.icache.ReadReq_mshr_miss_latency::total  76522583000                       # number of ReadReq MSHR miss cycles
system.cpu.icache.ReadReq_mshr_miss_rate::.cpu.inst     0.003554                       # mshr miss rate for ReadReq accesses
system.cpu.icache.ReadReq_mshr_miss_rate::total     0.003554                       # mshr miss rate for ReadReq accesses
system.cpu.icache.ReadReq_avg_mshr_miss_latency::.cpu.inst 25484.489688                       # average ReadReq mshr miss latency
system.cpu.icache.ReadReq_avg_mshr_miss_latency::total 25484.489688                       # average ReadReq mshr miss latency
system.cpu.icache.power_state.pwrStateResidencyTicks::UNDEFINED 2376127939000                       # Cumulative time (in ticks) in various power states
system.cpu.icache.tags.tagsinuse           255.994572                       # Cycle average of tags in use
system.cpu.icache.tags.total_refs           844890358                       # Total number of references to valid blocks.
system.cpu.icache.tags.sampled_refs           3002712                       # Sample count of references to valid blocks.
system.cpu.icache.tags.avg_refs            281.375756                       # Average number of references to valid blocks.
system.cpu.icache.tags.warmup_cycle            107000                       # Cycle when the warmup percentage was hit.
system.cpu.icache.tags.occ_blocks::.cpu.inst   255.994572                       # Average occupied blocks per requestor
system.cpu.icache.tags.occ_percent::.cpu.inst     0.999979                       # Average percentage of cache occupancy
system.cpu.icache.tags.occ_percent::total     0.999979                       # Average percentage of cache occupancy
system.cpu.icache.tags.occ_task_id_blocks::1024          256                       # Occupied blocks per task id
system.cpu.icache.tags.age_task_id_blocks_1024::0           35                       # Occupied blocks per task id
system.cpu.icache.tags.age_task_id_blocks_1024::1          105                       # Occupied blocks per task id
system.cpu.icache.tags.age_task_id_blocks_1024::2          108                       # Occupied blocks per task id
system.cpu.icache.tags.age_task_id_blocks_1024::3            8                       # Occupied blocks per task id
system.cpu.icache.tags.occ_task_id_percent::1024            1                       # Percentage of cache occupancy per task id
system.cpu.icache.tags.tag_accesses        1692783428                       # Number of tag accesses
system.cpu.icache.tags.data_accesses       1692783428                       # Number of data accesses
system.cpu.icache.tags.power_state.pwrStateResidencyTicks::UNDEFINED 2376127939000                       # Cumulative time (in ticks) in various power states
system.cpu.interrupts.clk_domain.clock          16000                       # Clock period in ticks
system.cpu.itb.rdAccesses                           0                       # TLB accesses on read requests
system.cpu.itb.wrAccesses                   844890358                       # TLB accesses on write requests
system.cpu.itb.rdMisses                             0                       # TLB misses on read requests
system.cpu.itb.wrMisses                           158                       # TLB misses on write requests
system.cpu.itb.walker.power_state.pwrStateResidencyTicks::UNDEFINED 2376127939000                       # Cumulative time (in ticks) in various power states
system.cpu.power_state.pwrStateResidencyTicks::ON 2376127939000                       # Cumulative time (in ticks) in various power states
system.cpu.thread_0.numInsts                        0                       # Number of Instructions committed
system.cpu.thread_0.numOps                          0                       # Number of Ops committed
system.cpu.thread_0.numMemRefs                      0                       # Number of Memory References
system.l2bus.trans_dist::ReadResp             4310799                       # Transaction distribution
system.l2bus.trans_dist::WritebackDirty       1041747                       # Transaction distribution
system.l2bus.trans_dist::CleanEvict           4751762                       # Transaction distribution
system.l2bus.trans_dist::ReadExReq             203928                       # Transaction distribution
system.l2bus.trans_dist::ReadExResp            203928                       # Transaction distribution
system.l2bus.trans_dist::ReadSharedReq        4310799                       # Transaction distribution
system.l2bus.pkt_count_system.cpu.icache.mem_side_port::system.l2cache.cpu_side_port      9007880                       # Packet count per connected requestor and responder (bytes)
system.l2bus.pkt_count_system.cpu.dcache.mem_side_port::system.l2cache.cpu_side_port      4535021                       # Packet count per connected requestor and responder (bytes)
system.l2bus.pkt_count::total                13542901                       # Packet count per connected requestor and responder (bytes)
system.l2bus.pkt_size_system.cpu.icache.mem_side_port::system.l2cache.cpu_side_port    192173568                       # Cumulative packet size per connected requestor and responder (bytes)
system.l2bus.pkt_size_system.cpu.dcache.mem_side_port::system.l2cache.cpu_side_port    137290688                       # Cumulative packet size per connected requestor and responder (bytes)
system.l2bus.pkt_size::total                329464256                       # Cumulative packet size per connected requestor and responder (bytes)
system.l2bus.snoops                           1280062                       # Total snoops (count)
system.l2bus.snoopTraffic                    26150080                       # Total snoop traffic (bytes)
system.l2bus.snoop_fanout::samples            5794789                       # Request fanout histogram
system.l2bus.snoop_fanout::mean              0.074859                       # Request fanout histogram
system.l2bus.snoop_fanout::stdev             0.263165                       # Request fanout histogram
system.l2bus.snoop_fanout::underflows               0      0.00%      0.00% # Request fanout histogram
system.l2bus.snoop_fanout::0                  5360994     92.51%     92.51% # Request fanout histogram
system.l2bus.snoop_fanout::1                   433795      7.49%    100.00% # Request fanout histogram
system.l2bus.snoop_fanout::2                        0      0.00%    100.00% # Request fanout histogram
system.l2bus.snoop_fanout::overflows                0      0.00%    100.00% # Request fanout histogram
system.l2bus.snoop_fanout::min_value                0                       # Request fanout histogram
system.l2bus.snoop_fanout::max_value                1                       # Request fanout histogram
system.l2bus.snoop_fanout::total              5794789                       # Request fanout histogram
system.l2bus.power_state.pwrStateResidencyTicks::UNDEFINED 2376127939000                       # Cumulative time (in ticks) in various power states
system.l2bus.reqLayer0.occupancy          10294478000                       # Layer occupancy (ticks)
system.l2bus.reqLayer0.utilization                0.4                       # Layer utilization (%)
system.l2bus.respLayer0.occupancy          9008136000                       # Layer occupancy (ticks)
system.l2bus.respLayer0.utilization               0.4                       # Layer utilization (%)
system.l2bus.respLayer1.occupancy          4536045000                       # Layer occupancy (ticks)
system.l2bus.respLayer1.utilization               0.2                       # Layer utilization (%)
system.l2cache.demand_hits::.cpu.inst         2944136                       # number of demand (read+write) hits
system.l2cache.demand_hits::.cpu.data          464772                       # number of demand (read+write) hits
system.l2cache.demand_hits::total             3408908                       # number of demand (read+write) hits
system.l2cache.overall_hits::.cpu.inst        2944136                       # number of overall hits
system.l2cache.overall_hits::.cpu.data         464772                       # number of overall hits
system.l2cache.overall_hits::total            3408908                       # number of overall hits
system.l2cache.demand_misses::.cpu.inst         58576                       # number of demand (read+write) misses
system.l2cache.demand_misses::.cpu.data       1047243                       # number of demand (read+write) misses
system.l2cache.demand_misses::total           1105819                       # number of demand (read+write) misses
system.l2cache.overall_misses::.cpu.inst        58576                       # number of overall misses
system.l2cache.overall_misses::.cpu.data      1047243                       # number of overall misses
system.l2cache.overall_misses::total          1105819                       # number of overall misses
system.l2cache.demand_miss_latency::.cpu.inst   5687370000                       # number of demand (read+write) miss cycles
system.l2cache.demand_miss_latency::.cpu.data 106213038000                       # number of demand (read+write) miss cycles
system.l2cache.demand_miss_latency::total 111900408000                       # number of demand (read+write) miss cycles
system.l2cache.overall_miss_latency::.cpu.inst   5687370000                       # number of overall miss cycles
system.l2cache.overall_miss_latency::.cpu.data 106213038000                       # number of overall miss cycles
system.l2cache.overall_miss_latency::total 111900408000                       # number of overall miss cycles
system.l2cache.demand_accesses::.cpu.inst      3002712                       # number of demand (read+write) accesses
system.l2cache.demand_accesses::.cpu.data      1512015                       # number of demand (read+write) accesses
system.l2cache.demand_accesses::total         4514727                       # number of demand (read+write) accesses
system.l2cache.overall_accesses::.cpu.inst      3002712                       # number of overall (read+write) accesses
system.l2cache.overall_accesses::.cpu.data      1512015                       # number of overall (read+write) accesses
system.l2cache.overall_accesses::total        4514727                       # number of overall (read+write) accesses
system.l2cache.demand_miss_rate::.cpu.inst     0.019508                       # miss rate for demand accesses
system.l2cache.demand_miss_rate::.cpu.data     0.692614                       # miss rate for demand accesses
system.l2cache.demand_miss_rate::total       0.244936                       # miss rate for demand accesses
system.l2cache.overall_miss_rate::.cpu.inst     0.019508                       # miss rate for overall accesses
system.l2cache.overall_miss_rate::.cpu.data     0.692614                       # miss rate for overall accesses
system.l2cache.overall_miss_rate::total      0.244936                       # miss rate for overall accesses
system.l2cache.demand_avg_miss_latency::.cpu.inst 97093.860967                       # average overall miss latency
system.l2cache.demand_avg_miss_latency::.cpu.data 101421.578373                       # average overall miss latency
system.l2cache.demand_avg_miss_latency::total 101192.336178                       # average overall miss latency
system.l2cache.overall_avg_miss_latency::.cpu.inst 97093.860967                       # average overall miss latency
system.l2cache.overall_avg_miss_latency::.cpu.data 101421.578373                       # average overall miss latency
system.l2cache.overall_avg_miss_latency::total 101192.336178                       # average overall miss latency
system.l2cache.blocked_cycles::no_mshrs             0                       # number of cycles access was blocked
system.l2cache.blocked_cycles::no_targets            0                       # number of cycles access was blocked
system.l2cache.blocked::no_mshrs                    0                       # number of cycles access was blocked
system.l2cache.blocked::no_targets                  0                       # number of cycles access was blocked
system.l2cache.avg_blocked_cycles::no_mshrs          nan                       # average number of cycles each access was blocked
system.l2cache.avg_blocked_cycles::no_targets          nan                       # average number of cycles each access was blocked
system.l2cache.writebacks::.writebacks         408595                       # number of writebacks
system.l2cache.writebacks::total               408595                       # number of writebacks
system.l2cache.demand_mshr_misses::.cpu.inst        58576                       # number of demand (read+write) MSHR misses
system.l2cache.demand_mshr_misses::.cpu.data      1047243                       # number of demand (read+write) MSHR misses
system.l2cache.demand_mshr_misses::total      1105819                       # number of demand (read+write) MSHR misses
system.l2cache.overall_mshr_misses::.cpu.inst        58576                       # number of overall MSHR misses
system.l2cache.overall_mshr_misses::.cpu.data      1047243                       # number of overall MSHR misses
system.l2cache.overall_mshr_misses::total      1105819                       # number of overall MSHR misses
system.l2cache.demand_mshr_miss_latency::.cpu.inst   4515850000                       # number of demand (read+write) MSHR miss cycles
system.l2cache.demand_mshr_miss_latency::.cpu.data  85268178000                       # number of demand (read+write) MSHR miss cycles
system.l2cache.demand_mshr_miss_latency::total  89784028000                       # number of demand (read+write) MSHR miss cycles
system.l2cache.overall_mshr_miss_latency::.cpu.inst   4515850000                       # number of overall MSHR miss cycles
system.l2cache.overall_mshr_miss_latency::.cpu.data  85268178000                       # number of overall MSHR miss cycles
system.l2cache.overall_mshr_miss_latency::total  89784028000                       # number of overall MSHR miss cycles
system.l2cache.demand_mshr_miss_rate::.cpu.inst     0.019508                       # mshr miss rate for demand accesses
system.l2cache.demand_mshr_miss_rate::.cpu.data     0.692614                       # mshr miss rate for demand accesses
system.l2cache.demand_mshr_miss_rate::total     0.244936                       # mshr miss rate for demand accesses
system.l2cache.overall_mshr_miss_rate::.cpu.inst     0.019508                       # mshr miss rate for overall accesses
system.l2cache.overall_mshr_miss_rate::.cpu.data     0.692614                       # mshr miss rate for overall accesses
system.l2cache.overall_mshr_miss_rate::total     0.244936                       # mshr miss rate for overall accesses
system.l2cache.demand_avg_mshr_miss_latency::.cpu.inst 77093.860967                       # average overall mshr miss latency
system.l2cache.demand_avg_mshr_miss_latency::.cpu.data 81421.578373                       # average overall mshr miss latency
system.l2cache.demand_avg_mshr_miss_latency::total 81192.336178                       # average overall mshr miss latency
system.l2cache.overall_avg_mshr_miss_latency::.cpu.inst 77093.860967                       # average overall mshr miss latency
system.l2cache.overall_avg_mshr_miss_latency::.cpu.data 81421.578373                       # average overall mshr miss latency
system.l2cache.overall_avg_mshr_miss_latency::total 81192.336178                       # average overall mshr miss latency
system.l2cache.replacements                   1268991                       # number of replacements
system.l2cache.WritebackDirty_hits::.writebacks       631448                       # number of WritebackDirty hits
system.l2cache.WritebackDirty_hits::total       631448                       # number of WritebackDirty hits
system.l2cache.WritebackDirty_misses::.writebacks         1704                       # number of WritebackDirty misses
system.l2cache.WritebackDirty_misses::total         1704                       # number of WritebackDirty misses
system.l2cache.WritebackDirty_accesses::.writebacks       633152                       # number of WritebackDirty accesses(hits+misses)
system.l2cache.WritebackDirty_accesses::total       633152                       # number of WritebackDirty accesses(hits+misses)
system.l2cache.WritebackDirty_miss_rate::.writebacks     0.002691                       # miss rate for WritebackDirty accesses
system.l2cache.WritebackDirty_miss_rate::total     0.002691                       # miss rate for WritebackDirty accesses
system.l2cache.WritebackDirty_mshr_misses::.writebacks         1704                       # number of WritebackDirty MSHR misses
system.l2cache.WritebackDirty_mshr_misses::total         1704                       # number of WritebackDirty MSHR misses
system.l2cache.WritebackDirty_mshr_miss_rate::.writebacks     0.002691                       # mshr miss rate for WritebackDirty accesses
system.l2cache.WritebackDirty_mshr_miss_rate::total     0.002691                       # mshr miss rate for WritebackDirty accesses
system.l2cache.CleanEvict_mshr_misses::.writebacks       255414                       # number of CleanEvict MSHR misses
system.l2cache.CleanEvict_mshr_misses::total       255414                       # number of CleanEvict MSHR misses
system.l2cache.CleanEvict_mshr_miss_rate::.writebacks          inf                       # mshr miss rate for CleanEvict accesses
system.l2cache.CleanEvict_mshr_miss_rate::total          inf                       # mshr miss rate for CleanEvict accesses
system.l2cache.ReadExReq_hits::.cpu.data        23491                       # number of ReadExReq hits
system.l2cache.ReadExReq_hits::total            23491                       # number of ReadExReq hits
system.l2cache.ReadExReq_misses::.cpu.data       180437                       # number of ReadExReq misses
system.l2cache.ReadExReq_misses::total         180437                       # number of ReadExReq misses
system.l2cache.ReadExReq_miss_latency::.cpu.data  17954773000                       # number of ReadExReq miss cycles
system.l2cache.ReadExReq_miss_latency::total  17954773000                       # number of ReadExReq miss cycles
system.l2cache.ReadExReq_accesses::.cpu.data       203928                       # number of ReadExReq accesses(hits+misses)
system.l2cache.ReadExReq_accesses::total       203928                       # number of ReadExReq accesses(hits+misses)
system.l2cache.ReadExReq_miss_rate::.cpu.data     0.884807                       # miss rate for ReadExReq accesses
system.l2cache.ReadExReq_miss_rate::total     0.884807                       # miss rate for ReadExReq accesses
system.l2cache.ReadExReq_avg_miss_latency::.cpu.data 99507.157623                       # average ReadExReq miss latency
system.l2cache.ReadExReq_avg_miss_latency::total 99507.157623                       # average ReadExReq miss latency
system.l2cache.ReadExReq_mshr_misses::.cpu.data       180437                       # number of ReadExReq MSHR misses
system.l2cache.ReadExReq_mshr_misses::total       180437                       # number of ReadExReq MSHR misses
system.l2cache.ReadExReq_mshr_miss_latency::.cpu.data  14346033000                       # number of ReadExReq MSHR miss cycles
system.l2cache.ReadExReq_mshr_miss_latency::total  14346033000                       # number of ReadExReq MSHR miss cycles
system.l2cache.ReadExReq_mshr_miss_rate::.cpu.data     0.884807                       # mshr miss rate for ReadExReq accesses
system.l2cache.ReadExReq_mshr_miss_rate::total     0.884807                       # mshr miss rate for ReadExReq accesses
system.l2cache.ReadExReq_avg_mshr_miss_latency::.cpu.data 79507.157623                       # average ReadExReq mshr miss latency
system.l2cache.ReadExReq_avg_mshr_miss_latency::total 79507.157623                       # average ReadExReq mshr miss latency
system.l2cache.ReadSharedReq_hits::.cpu.inst      2944136                       # number of ReadSharedReq hits
system.l2cache.ReadSharedReq_hits::.cpu.data       441281                       # number of ReadSharedReq hits
system.l2cache.ReadSharedReq_hits::total      3385417                       # number of ReadSharedReq hits
system.l2cache.ReadSharedReq_misses::.cpu.inst        58576                       # number of ReadSharedReq misses
system.l2cache.ReadSharedReq_misses::.cpu.data       866806                       # number of ReadSharedReq misses
system.l2cache.ReadSharedReq_misses::total       925382                       # number of ReadSharedReq misses
system.l2cache.ReadSharedReq_miss_latency::.cpu.inst   5687370000                       # number of ReadSharedReq miss cycles
system.l2cache.ReadSharedReq_miss_latency::.cpu.data  88258265000                       # number of ReadSharedReq miss cycles
system.l2cache.ReadSharedReq_miss_latency::total  93945635000                       # number of ReadSharedReq miss cycles
system.l2cache.ReadSharedReq_accesses::.cpu.inst      3002712                       # number of ReadSharedReq accesses(hits+misses)
system.l2cache.ReadSharedReq_accesses::.cpu.data      1308087                       # number of ReadSharedReq accesses(hits+misses)
system.l2cache.ReadSharedReq_accesses::total      4310799                       # number of ReadSharedReq accesses(hits+misses)
system.l2cache.ReadSharedReq_miss_rate::.cpu.inst     0.019508                       # miss rate for ReadSharedReq accesses
system.l2cache.ReadSharedReq_miss_rate::.cpu.data     0.662652                       # miss rate for ReadSharedReq accesses
system.l2cache.ReadSharedReq_miss_rate::total     0.214666                       # miss rate for ReadSharedReq accesses
system.l2cache.ReadSharedReq_avg_miss_latency::.cpu.inst 97093.860967                       # average ReadSharedReq miss latency
system.l2cache.ReadSharedReq_avg_miss_latency::.cpu.data 101820.090078                       # average ReadSharedReq miss latency
system.l2cache.ReadSharedReq_avg_miss_latency::total 101520.923251                       # average ReadSharedReq miss latency
system.l2cache.ReadSharedReq_mshr_misses::.cpu.inst        58576                       # number of ReadSharedReq MSHR misses
system.l2cache.ReadSharedReq_mshr_misses::.cpu.data       866806                       # number of ReadSharedReq MSHR misses
system.l2cache.ReadSharedReq_mshr_misses::total       925382                       # number of ReadSharedReq MSHR misses
system.l2cache.ReadSharedReq_mshr_miss_latency::.cpu.inst   4515850000                       # number of ReadSharedReq MSHR miss cycles
system.l2cache.ReadSharedReq_mshr_miss_latency::.cpu.data  70922145000                       # number of ReadSharedReq MSHR miss cycles
system.l2cache.ReadSharedReq_mshr_miss_latency::total  75437995000                       # number of ReadSharedReq MSHR miss cycles
system.l2cache.ReadSharedReq_mshr_miss_rate::.cpu.inst     0.019508                       # mshr miss rate for ReadSharedReq accesses
system.l2cache.ReadSharedReq_mshr_miss_rate::.cpu.data     0.662652                       # mshr miss rate for ReadSharedReq accesses
system.l2cache.ReadSharedReq_mshr_miss_rate::total     0.214666                       # mshr miss rate for ReadSharedReq accesses
system.l2cache.ReadSharedReq_avg_mshr_miss_latency::.cpu.inst 77093.860967                       # average ReadSharedReq mshr miss latency
system.l2cache.ReadSharedReq_avg_mshr_miss_latency::.cpu.data 81820.090078                       # average ReadSharedReq mshr miss latency
system.l2cache.ReadSharedReq_avg_mshr_miss_latency::total 81520.923251                       # average ReadSharedReq mshr miss latency
system.l2cache.power_state.pwrStateResidencyTicks::UNDEFINED 2376127939000                       # Cumulative time (in ticks) in various power states
system.l2cache.replacement_policy.totalBypasses        12775                       # Total number of cache bypasses
system.l2cache.replacement_policy.effectiveBypasses         2942                       # Bypasses that correctly skipped non-reused blocks
system.l2cache.replacement_policy.ineffectiveBypasses          703                       # Bypasses that incorrectly skipped requested blocks
system.l2cache.replacement_policy.virtualEffectiveBypasses        29360                       # Virtual bypasses correctly predicting non-reused blocks
system.l2cache.replacement_policy.virtualIneffectiveBypasses        17709                       # Virtual bypasses incorrectly predicting requested blocks
system.l2cache.tags.tagsinuse             2047.773224                       # Cycle average of tags in use
system.l2cache.tags.total_refs                8759985                       # Total number of references to valid blocks.
system.l2cache.tags.sampled_refs              1271039                       # Sample count of references to valid blocks.
system.l2cache.tags.avg_refs                 6.891988                       # Average number of references to valid blocks.
system.l2cache.tags.warmup_cycle             15322000                       # Cycle when the warmup percentage was hit.
system.l2cache.tags.occ_blocks::.writebacks   183.572752                       # Average occupied blocks per requestor
system.l2cache.tags.occ_blocks::.cpu.inst   270.841954                       # Average occupied blocks per requestor
system.l2cache.tags.occ_blocks::.cpu.data  1593.358518                       # Average occupied blocks per requestor
system.l2cache.tags.occ_percent::.writebacks     0.089635                       # Average percentage of cache occupancy
system.l2cache.tags.occ_percent::.cpu.inst     0.132247                       # Average percentage of cache occupancy
system.l2cache.tags.occ_percent::.cpu.data     0.778007                       # Average percentage of cache occupancy
system.l2cache.tags.occ_percent::total       0.999889                       # Average percentage of cache occupancy
system.l2cache.tags.occ_task_id_blocks::1024         2048                       # Occupied blocks per task id
system.l2cache.tags.age_task_id_blocks_1024::0           73                       # Occupied blocks per task id
system.l2cache.tags.age_task_id_blocks_1024::1          166                       # Occupied blocks per task id
system.l2cache.tags.age_task_id_blocks_1024::2          853                       # Occupied blocks per task id
system.l2cache.tags.age_task_id_blocks_1024::3          956                       # Occupied blocks per task id
system.l2cache.tags.occ_task_id_percent::1024            1                       # Percentage of cache occupancy per task id
system.l2cache.tags.tag_accesses             73496431                       # Number of tag accesses
system.l2cache.tags.data_accesses            73496431                       # Number of data accesses
system.l2cache.tags.power_state.pwrStateResidencyTicks::UNDEFINED 2376127939000                       # Cumulative time (in ticks) in various power states
system.mem_ctrl.avgPriority_.writebacks::samples    410295.00                       # Average QoS priority value for accepted requests
system.mem_ctrl.avgPriority_.cpu.inst::samples     58576.00                       # Average QoS priority value for accepted requests
system.mem_ctrl.avgPriority_.cpu.data::samples   1035085.00                       # Average QoS priority value for accepted requests
system.mem_ctrl.priorityMinLatency       0.000000018750                       # per QoS priority minimum request to response latency (s)
system.mem_ctrl.priorityMaxLatency       0.015476474500                       # per QoS priority maximum request to response latency (s)
system.mem_ctrl.numReadWriteTurnArounds         23622                       # Number of turnarounds from READ to WRITE
system.mem_ctrl.numWriteReadTurnArounds         23622                       # Number of turnarounds from WRITE to READ
system.mem_ctrl.numStayReadState              3195457                       # Number of times bus staying in READ state
system.mem_ctrl.numStayWriteState              387031                       # Number of times bus staying in WRITE state
system.mem_ctrl.readReqs                      1105819                       # Number of read requests accepted
system.mem_ctrl.writeReqs                      410299                       # Number of write requests accepted
system.mem_ctrl.readBursts                    1105819                       # Number of controller read bursts, including those serviced by the write queue
system.mem_ctrl.writeBursts                    410299                       # Number of controller write bursts, including those merged in the write queue
system.mem_ctrl.servicedByWrQ                   12158                       # Number of controller read bursts serviced by the write queue
system.mem_ctrl.mergedWrBursts                      4                       # Number of controller write bursts merged with an existing one
system.mem_ctrl.neitherReadNorWriteReqs             0                       # Number of requests that are neither read nor write
system.mem_ctrl.avgRdQLen                        1.00                       # Average read queue length when enqueuing
system.mem_ctrl.avgWrQLen                       24.66                       # Average write queue length when enqueuing
system.mem_ctrl.numRdRetry                          0                       # Number of times read queue was full causing retry
system.mem_ctrl.numWrRetry                          0                       # Number of times write queue was full causing retry
system.mem_ctrl.readPktSize::0                      0                       # Read request sizes (log2)
system.mem_ctrl.readPktSize::1                      0                       # Read request sizes (log2)
system.mem_ctrl.readPktSize::2                      0                       # Read request sizes (log2)
system.mem_ctrl.readPktSize::3                      0                       # Read request sizes (log2)
system.mem_ctrl.readPktSize::4                      0                       # Read request sizes (log2)
system.mem_ctrl.readPktSize::5                      0                       # Read request sizes (log2)
system.mem_ctrl.readPktSize::6                1105819                       # Read request sizes (log2)
system.mem_ctrl.writePktSize::0                     0                       # Write request sizes (log2)
system.mem_ctrl.writePktSize::1                     0                       # Write request sizes (log2)
system.mem_ctrl.writePktSize::2                     0                       # Write request sizes (log2)
system.mem_ctrl.writePktSize::3                     0                       # Write request sizes (log2)
system.mem_ctrl.writePktSize::4                     0                       # Write request sizes (log2)
system.mem_ctrl.writePktSize::5                     0                       # Write request sizes (log2)
system.mem_ctrl.writePktSize::6                410299                       # Write request sizes (log2)
system.mem_ctrl.rdQLenPdf::0                  1093661                       # What read queue length does an incoming req see
system.mem_ctrl.rdQLenPdf::1                        0                       # What read queue length does an incoming req see
system.mem_ctrl.rdQLenPdf::2                        0                       # What read queue length does an incoming req see
system.mem_ctrl.rdQLenPdf::3                        0                       # What read queue length does an incoming req see
system.mem_ctrl.rdQLenPdf::4                        0                       # What read queue length does an incoming req see
system.mem_ctrl.rdQLenPdf::5                        0                       # What read queue length does an incoming req see
system.mem_ctrl.rdQLenPdf::6                        0                       # What read queue length does an incoming req see
system.mem_ctrl.rdQLenPdf::7                        0                       # What read queue length does an incoming req see
system.mem_ctrl.rdQLenPdf::8                        0                       # What read queue length does an incoming req see
system.mem_ctrl.rdQLenPdf::9                        0                       # What read queue length does an incoming req see
system.mem_ctrl.rdQLenPdf::10                       0                       # What read queue length does an incoming req see
system.mem_ctrl.rdQLenPdf::11                       0                       # What read queue length does an incoming req see
system.mem_ctrl.rdQLenPdf::12                       0                       # What read queue length does an incoming req see
system.mem_ctrl.rdQLenPdf::13                       0                       # What read queue length does an incoming req see
system.mem_ctrl.rdQLenPdf::14                       0                       # What read queue length does an incoming req see
system.mem_ctrl.rdQLenPdf::15                       0                       # What read queue length does an incoming req see
system.mem_ctrl.rdQLenPdf::16                       0                       # What read queue length does an incoming req see
system.mem_ctrl.rdQLenPdf::17                       0                       # What read queue length does an incoming req see
system.mem_ctrl.rdQLenPdf::18                       0                       # What read queue length does an incoming req see
system.mem_ctrl.rdQLenPdf::19                       0                       # What read queue length does an incoming req see
system.mem_ctrl.rdQLenPdf::20                       0                       # What read queue length does an incoming req see
system.mem_ctrl.rdQLenPdf::21                       0                       # What read queue length does an incoming req see
system.mem_ctrl.rdQLenPdf::22                       0                       # What read queue length does an incoming req see
system.mem_ctrl.rdQLenPdf::23                       0                       # What read queue length does an incoming req see
system.mem_ctrl.rdQLenPdf::24                       0                       # What read queue length does an incoming req see
system.mem_ctrl.rdQLenPdf::25                       0                       # What read queue length does an incoming req see
system.mem_ctrl.rdQLenPdf::26                       0                       # What read queue length does an incoming req see
system.mem_ctrl.rdQLenPdf::27                       0                       # What read queue length does an incoming req see
system.mem_ctrl.rdQLenPdf::28                       0                       # What read queue length does an incoming req see
system.mem_ctrl.rdQLenPdf::29                       0                       # What read queue length does an incoming req see
system.mem_ctrl.rdQLenPdf::30                       0                       # What read queue length does an incoming req see
system.mem_ctrl.rdQLenPdf::31                       0                       # What read queue length does an incoming req see
system.mem_ctrl.wrQLenPdf::0                        1                       # What write queue length does an incoming req see
system.mem_ctrl.wrQLenPdf::1                        1                       # What write queue length does an incoming req see
system.mem_ctrl.wrQLenPdf::2                        1                       # What write queue length does an incoming req see
system.mem_ctrl.wrQLenPdf::3                        1                       # What write queue length does an incoming req see
system.mem_ctrl.wrQLenPdf::4                        1                       # What write queue length does an incoming req see
system.mem_ctrl.wrQLenPdf::5                        1                       # What write queue length does an incoming req see
system.mem_ctrl.wrQLenPdf::6                        1                       # What write queue length does an incoming req see
system.mem_ctrl.wrQLenPdf::7                        1                       # What write queue length does an incoming req see
system.mem_ctrl.wrQLenPdf::8                        1                       # What write queue length does an incoming req see
system.mem_ctrl.wrQLenPdf::9                        1                       # What write queue length does an incoming req see
system.mem_ctrl.wrQLenPdf::10                       1                       # What write queue length does an incoming req see
system.mem_ctrl.wrQLenPdf::11                       1                       # What write queue length does an incoming req see
system.mem_ctrl.wrQLenPdf::12                       1                       # What write queue length does an incoming req see
system.mem_ctrl.wrQLenPdf::13                       1                       # What write queue length does an incoming req see
system.mem_ctrl.wrQLenPdf::14                       1                       # What write queue length does an incoming req see
system.mem_ctrl.wrQLenPdf::15                   15312                       # What write queue length does an incoming req see
system.mem_ctrl.wrQLenPdf::16                   16179                       # What write queue length does an incoming req see
system.mem_ctrl.wrQLenPdf::17                   23225                       # What write queue length does an incoming req see
system.mem_ctrl.wrQLenPdf::18                   23942                       # What write queue length does an incoming req see
system.mem_ctrl.wrQLenPdf::19                   23837                       # What write queue length does an incoming req see
system.mem_ctrl.wrQLenPdf::20                   23682                       # What write queue length does an incoming req see
system.mem_ctrl.wrQLenPdf::21                   24169                       # What write queue length does an incoming req see
system.mem_ctrl.wrQLenPdf::22                   23666                       # What write queue length does an incoming req see
system.mem_ctrl.wrQLenPdf::23                   23632                       # What write queue length does an incoming req see
system.mem_ctrl.wrQLenPdf::24                   23626                       # What write queue length does an incoming req see
system.mem_ctrl.wrQLenPdf::25                   23636                       # What write queue length does an incoming req see
system.mem_ctrl.wrQLenPdf::26                   23623                       # What write queue length does an incoming req see
system.mem_ctrl.wrQLenPdf::27                   23624                       # What write queue length does an incoming req see
system.mem_ctrl.wrQLenPdf::28                   23622                       # What write queue length does an incoming req see
system.mem_ctrl.wrQLenPdf::29                   23622                       # What write queue length does an incoming req see
system.mem_ctrl.wrQLenPdf::30                   23622                       # What write queue length does an incoming req see
system.mem_ctrl.wrQLenPdf::31                   23622                       # What write queue length does an incoming req see
system.mem_ctrl.wrQLenPdf::32                   23622                       # What write queue length does an incoming req see
system.mem_ctrl.wrQLenPdf::33                      17                       # What write queue length does an incoming req see
system.mem_ctrl.wrQLenPdf::34                       0                       # What write queue length does an incoming req see
system.mem_ctrl.wrQLenPdf::35                       0                       # What write queue length does an incoming req see
system.mem_ctrl.wrQLenPdf::36                       0                       # What write queue length does an incoming req see
system.mem_ctrl.wrQLenPdf::37                       0                       # What write queue length does an incoming req see
system.mem_ctrl.wrQLenPdf::38                       0                       # What write queue length does an incoming req see
system.mem_ctrl.wrQLenPdf::39                       0                       # What write queue length does an incoming req see
system.mem_ctrl.wrQLenPdf::40                       0                       # What write queue length does an incoming req see
system.mem_ctrl.wrQLenPdf::41                       0                       # What write queue length does an incoming req see
system.mem_ctrl.wrQLenPdf::42                       0                       # What write queue length does an incoming req see
system.mem_ctrl.wrQLenPdf::43                       0                       # What write queue length does an incoming req see
system.mem_ctrl.wrQLenPdf::44                       0                       # What write queue length does an incoming req see
system.mem_ctrl.wrQLenPdf::45                       0                       # What write queue length does an incoming req see
system.mem_ctrl.wrQLenPdf::46                       0                       # What write queue length does an incoming req see
system.mem_ctrl.wrQLenPdf::47                       0                       # What write queue length does an incoming req see
system.mem_ctrl.wrQLenPdf::48                       0                       # What write queue length does an incoming req see
system.mem_ctrl.wrQLenPdf::49                       0                       # What write queue length does an incoming req see
system.mem_ctrl.wrQLenPdf::50                       0                       # What write queue length does an incoming req see
system.mem_ctrl.wrQLenPdf::51                       0                       # What write queue length does an incoming req see
system.mem_ctrl.wrQLenPdf::52                       0                       # What write queue length does an incoming req see
system.mem_ctrl.wrQLenPdf::53                       0                       # What write queue length does an incoming req see
system.mem_ctrl.wrQLenPdf::54                       0                       # What write queue length does an incoming req see
system.mem_ctrl.wrQLenPdf::55                       0                       # What write queue length does an incoming req see
system.mem_ctrl.wrQLenPdf::56                       0                       # What write queue length does an incoming req see
system.mem_ctrl.wrQLenPdf::57                       0                       # What write queue length does an incoming req see
system.mem_ctrl.wrQLenPdf::58                       0                       # What write queue length does an incoming req see
system.mem_ctrl.wrQLenPdf::59                       0                       # What write queue length does an incoming req see
system.mem_ctrl.wrQLenPdf::60                       0                       # What write queue length does an incoming req see
system.mem_ctrl.wrQLenPdf::61                       0                       # What write queue length does an incoming req see
system.mem_ctrl.wrQLenPdf::62                       0                       # What write queue length does an incoming req see
system.mem_ctrl.wrQLenPdf::63                       0                       # What write queue length does an incoming req see
system.mem_ctrl.rdPerTurnAround::samples        23622                       # Reads before turning the bus around for writes
system.mem_ctrl.rdPerTurnAround::mean       46.297604                       # Reads before turning the bus around for writes
system.mem_ctrl.rdPerTurnAround::gmean      37.274809                       # Reads before turning the bus around for writes
system.mem_ctrl.rdPerTurnAround::stdev      57.868350                       # Reads before turning the bus around for writes
system.mem_ctrl.rdPerTurnAround::0-127          23174     98.10%     98.10% # Reads before turning the bus around for writes
system.mem_ctrl.rdPerTurnAround::128-255          376      1.59%     99.70% # Reads before turning the bus around for writes
system.mem_ctrl.rdPerTurnAround::256-383            8      0.03%     99.73% # Reads before turning the bus around for writes
system.mem_ctrl.rdPerTurnAround::384-511            1      0.00%     99.73% # Reads before turning the bus around for writes
system.mem_ctrl.rdPerTurnAround::640-767            2      0.01%     99.74% # Reads before turning the bus around for writes
system.mem_ctrl.rdPerTurnAround::768-895            7      0.03%     99.77% # Reads before turning the bus around for writes
system.mem_ctrl.rdPerTurnAround::896-1023           39      0.17%     99.94% # Reads before turning the bus around for writes
system.mem_ctrl.rdPerTurnAround::1024-1151           14      0.06%    100.00% # Reads before turning the bus around for writes
system.mem_ctrl.rdPerTurnAround::2688-2815            1      0.00%    100.00% # Reads before turning the bus around for writes
system.mem_ctrl.rdPerTurnAround::total          23622                       # Reads before turning the bus around for writes
system.mem_ctrl.wrPerTurnAround::samples        23622                       # Writes before turning the bus around for reads
system.mem_ctrl.wrPerTurnAround::mean       17.368089                       # Writes before turning the bus around for reads
system.mem_ctrl.wrPerTurnAround::gmean      17.340947                       # Writes before turning the bus around for reads
system.mem_ctrl.wrPerTurnAround::stdev       0.959898                       # Writes before turning the bus around for reads
system.mem_ctrl.wrPerTurnAround::16              7418     31.40%     31.40% # Writes before turning the bus around for reads
system.mem_ctrl.wrPerTurnAround::17               797      3.37%     34.78% # Writes before turning the bus around for reads
system.mem_ctrl.wrPerTurnAround::18             14712     62.28%     97.06% # Writes before turning the bus around for reads
system.mem_ctrl.wrPerTurnAround::19               684      2.90%     99.95% # Writes before turning the bus around for reads
system.mem_ctrl.wrPerTurnAround::20                11      0.05%    100.00% # Writes before turning the bus around for reads
system.mem_ctrl.wrPerTurnAround::total          23622                       # Writes before turning the bus around for reads
system.mem_ctrl.bytesReadWrQ                   778112                       # Total number of bytes read from write queue
system.mem_ctrl.bytesReadSys                 70772416                       # Total read bytes from the system interface side
system.mem_ctrl.bytesWrittenSys              26259136                       # Total written bytes from the system interface side
[...]
system.mem_ctrl.requestorReadRate::.cpu.data 27879576.226808551699                       # Per-requestor bytes read from memory rate (Bytes/sec)
system.mem_ctrl.requestorWriteRate::.writebacks 11050421.809799695387                       # Per-requestor bytes write to memory rate (Bytes/sec)
system.mem_ctrl.requestorReadAccesses::.cpu.inst        58576                       # Per-requestor read serviced memory accesses
system.mem_ctrl.requestorReadAccesses::.cpu.data      1047243                       # Per-requestor read serviced memory accesses
system.mem_ctrl.requestorWriteAccesses::.writebacks       410299                       # Per-requestor write serviced memory accesses
system.mem_ctrl.requestorReadTotalLat::.cpu.inst   1511004500                       # Per-requestor read total memory access latency
system.mem_ctrl.requestorReadTotalLat::.cpu.data  31579742500                       # Per-requestor read total memory access latency
system.mem_ctrl.requestorWriteTotalLat::.writebacks 56222951934000                       # Per-requestor write total memory access latency
system.mem_ctrl.requestorReadAvgLat::.cpu.inst     25795.62                       # Per-requestor read average memory access latency
system.mem_ctrl.requestorReadAvgLat::.cpu.data     30155.12                       # Per-requestor read average memory access latency
system.mem_ctrl.requestorWriteAvgLat::.writebacks 137029219.99                       # Per-requestor write average memory access latency
system.mem_ctrl.dram.bytes_read::.cpu.inst      3748864                       # Number of bytes read from this memory
system.mem_ctrl.dram.bytes_read::.cpu.data     67023552                       # Number of bytes read from this memory
system.mem_ctrl.dram.bytes_read::total       70772416                       # Number of bytes read from this memory
system.mem_ctrl.dram.bytes_inst_read::.cpu.inst      3748864                       # Number of instructions bytes read from this memory
system.mem_ctrl.dram.bytes_inst_read::total      3748864                       # Number of instructions bytes read from this memory
system.mem_ctrl.dram.bytes_written::.writebacks     26259136                       # Number of bytes written to this memory
system.mem_ctrl.dram.bytes_written::total     26259136                       # Number of bytes written to this memory
system.mem_ctrl.dram.num_reads::.cpu.inst        58576                       # Number of read requests responded to by this memory
system.mem_ctrl.dram.num_reads::.cpu.data      1047243                       # Number of read requests responded to by this memory
system.mem_ctrl.dram.num_reads::total         1105819                       # Number of read requests responded to by this memory
system.mem_ctrl.dram.num_writes::.writebacks       410299                       # Number of write requests responded to by this memory
system.mem_ctrl.dram.num_writes::total         410299                       # Number of write requests responded to by this memory
system.mem_ctrl.dram.bw_read::.cpu.inst       1577720                       # Total read bandwidth from this memory (bytes/s)
system.mem_ctrl.dram.bw_read::.cpu.data      28207047                       # Total read bandwidth from this memory (bytes/s)
system.mem_ctrl.dram.bw_read::total          29784767                       # Total read bandwidth from this memory (bytes/s)
system.mem_ctrl.dram.bw_inst_read::.cpu.inst      1577720                       # Instruction read bandwidth from this memory (bytes/s)
system.mem_ctrl.dram.bw_inst_read::total      1577720                       # Instruction read bandwidth from this memory (bytes/s)
system.mem_ctrl.dram.bw_write::.writebacks     11051230                       # Write bandwidth from this memory (bytes/s)
system.mem_ctrl.dram.bw_write::total         11051230                       # Write bandwidth from this memory (bytes/s)
system.mem_ctrl.dram.bw_total::.writebacks     11051230                       # Total bandwidth to/from this memory (bytes/s)
system.mem_ctrl.dram.bw_total::.cpu.inst      1577720                       # Total bandwidth to/from this memory (bytes/s)
system.mem_ctrl.dram.bw_total::.cpu.data     28207047                       # Total bandwidth to/from this memory (bytes/s)
system.mem_ctrl.dram.bw_total::total         40835996                       # Total bandwidth to/from this memory (bytes/s)
system.mem_ctrl.dram.readBursts               1093661                       # Number of DRAM read bursts
system.mem_ctrl.dram.writeBursts               410269                       # Number of DRAM write bursts
system.mem_ctrl.dram.perBankRdBursts::0         63699                       # Per bank write bursts
system.mem_ctrl.dram.perBankRdBursts::1         84836                       # Per bank write bursts
system.mem_ctrl.dram.perBankRdBursts::2         55560                       # Per bank write bursts
system.mem_ctrl.dram.perBankRdBursts::3         77839                       # Per bank write bursts
system.mem_ctrl.dram.perBankRdBursts::4         60365                       # Per bank write bursts
system.mem_ctrl.dram.perBankRdBursts::5         75631                       # Per bank write bursts
system.mem_ctrl.dram.perBankRdBursts::6         51171                       # Per bank write bursts
system.mem_ctrl.dram.perBankRdBursts::7         65386                       # Per bank write bursts
system.mem_ctrl.dram.perBankRdBursts::8         52075                       # Per bank write bursts
system.mem_ctrl.dram.perBankRdBursts::9         60904                       # Per bank write bursts
system.mem_ctrl.dram.perBankRdBursts::10        49756                       # Per bank write bursts
system.mem_ctrl.dram.perBankRdBursts::11        82742                       # Per bank write bursts
system.mem_ctrl.dram.perBankRdBursts::12        71013                       # Per bank write bursts
system.mem_ctrl.dram.perBankRdBursts::13        82995                       # Per bank write bursts
system.mem_ctrl.dram.perBankRdBursts::14        65928                       # Per bank write bursts
system.mem_ctrl.dram.perBankRdBursts::15        93761                       # Per bank write bursts
system.mem_ctrl.dram.perBankWrBursts::0         16314                       # Per bank write bursts
system.mem_ctrl.dram.perBankWrBursts::1         37689                       # Per bank write bursts
system.mem_ctrl.dram.perBankWrBursts::2         26658                       # Per bank write bursts
system.mem_ctrl.dram.perBankWrBursts::3         37165                       # Per bank write bursts
system.mem_ctrl.dram.perBankWrBursts::4         34451                       # Per bank write bursts
system.mem_ctrl.dram.perBankWrBursts::5         50361                       # Per bank write bursts
system.mem_ctrl.dram.perBankWrBursts::6         31461                       # Per bank write bursts
system.mem_ctrl.dram.perBankWrBursts::7         36275                       # Per bank write bursts
system.mem_ctrl.dram.perBankWrBursts::8         31376                       # Per bank write bursts
system.mem_ctrl.dram.perBankWrBursts::9         32364                       # Per bank write bursts
system.mem_ctrl.dram.perBankWrBursts::10        12734                       # Per bank write bursts
system.mem_ctrl.dram.perBankWrBursts::11        10698                       # Per bank write bursts
system.mem_ctrl.dram.perBankWrBursts::12        13528                       # Per bank write bursts
system.mem_ctrl.dram.perBankWrBursts::13        12897                       # Per bank write bursts
system.mem_ctrl.dram.perBankWrBursts::14        12790                       # Per bank write bursts
system.mem_ctrl.dram.perBankWrBursts::15        13508                       # Per bank write bursts
system.mem_ctrl.dram.totQLat              12584603250                       # Total ticks spent queuing
system.mem_ctrl.dram.totBusLat             5468305000                       # Total ticks spent in databus transfers
system.mem_ctrl.dram.totMemAccLat         33090747000                       # Total ticks spent from burst creation until serviced by the DRAM
system.mem_ctrl.dram.avgQLat                 11506.86                       # Average queueing delay per DRAM burst
system.mem_ctrl.dram.avgBusLat                5000.00                       # Average bus latency per DRAM burst
system.mem_ctrl.dram.avgMemAccLat            30256.86                       # Average memory access latency per DRAM burst
system.mem_ctrl.dram.readRowHits               642274                       # Number of row buffer hits during reads
system.mem_ctrl.dram.writeRowHits              339633                       # Number of row buffer hits during writes
system.mem_ctrl.dram.readRowHitRate             58.73                       # Row buffer hit rate for reads
system.mem_ctrl.dram.writeRowHitRate            82.78                       # Row buffer hit rate for writes
system.mem_ctrl.dram.bytesPerActivate::samples       522015                       # Bytes accessed per row activation
system.mem_ctrl.dram.bytesPerActivate::mean   184.382012                       # Bytes accessed per row activation
system.mem_ctrl.dram.bytesPerActivate::gmean   122.572619                       # Bytes accessed per row activation
system.mem_ctrl.dram.bytesPerActivate::stdev   213.046552                       # Bytes accessed per row activation
system.mem_ctrl.dram.bytesPerActivate::0-127       270365     51.79%     51.79% # Bytes accessed per row activation
system.mem_ctrl.dram.bytesPerActivate::128-255       127549     24.43%     76.23% # Bytes accessed per row activation
system.mem_ctrl.dram.bytesPerActivate::256-383        53970     10.34%     86.57% # Bytes accessed per row activation
system.mem_ctrl.dram.bytesPerActivate::384-511        28270      5.42%     91.98% # Bytes accessed per row activation
system.mem_ctrl.dram.bytesPerActivate::512-639        10091      1.93%     93.91% # Bytes accessed per row activation
system.mem_ctrl.dram.bytesPerActivate::640-767         7300      1.40%     95.31% # Bytes accessed per row activation
system.mem_ctrl.dram.bytesPerActivate::768-895         6175      1.18%     96.50% # Bytes accessed per row activation
system.mem_ctrl.dram.bytesPerActivate::896-1023         5366      1.03%     97.52% # Bytes accessed per row activation
system.mem_ctrl.dram.bytesPerActivate::1024-1151        12929      2.48%    100.00% # Bytes accessed per row activation
system.mem_ctrl.dram.bytesPerActivate::total       522015                       # Bytes accessed per row activation
system.mem_ctrl.dram.bytesRead               69994304                       # Total number of bytes read from DRAM
system.mem_ctrl.dram.bytesWritten            26257216                       # Total number of bytes written to DRAM
system.mem_ctrl.dram.avgRdBW                29.457296                       # Average DRAM read bandwidth in MiBytes/s
system.mem_ctrl.dram.avgWrBW                11.050422                       # Average DRAM write bandwidth in MiBytes/s
system.mem_ctrl.dram.peakBW                  12800.00                       # Theoretical peak bandwidth in MiByte/s
system.mem_ctrl.dram.busUtil                     0.32                       # Data bus utilization in percentage
system.mem_ctrl.dram.busUtilRead                 0.23                       # Data bus utilization in percentage for reads
system.mem_ctrl.dram.busUtilWrite                0.09                       # Data bus utilization in percentage for writes
system.mem_ctrl.dram.pageHitRate                65.29                       # Row buffer hit rate, read and write combined
system.mem_ctrl.dram.power_state.pwrStateResidencyTicks::UNDEFINED 2376127939000                       # Cumulative time (in ticks) in various power states
system.mem_ctrl.dram.rank0.actEnergy       1676472000                       # Energy for activate commands per rank (pJ)
system.mem_ctrl.dram.rank0.preEnergy        891050820                       # Energy for precharge commands per rank (pJ)
system.mem_ctrl.dram.rank0.readEnergy      3816237180                       # Energy for read commands per rank (pJ)
system.mem_ctrl.dram.rank0.writeEnergy     1411352280                       # Energy for write commands per rank (pJ)
system.mem_ctrl.dram.rank0.refreshEnergy 187569074160.000031                       # Energy for refresh commands per rank (pJ)
system.mem_ctrl.dram.rank0.actBackEnergy 272520243870                       # Energy for active background per rank (pJ)
system.mem_ctrl.dram.rank0.preBackEnergy 682942397280                       # Energy for precharge background per rank (pJ)
system.mem_ctrl.dram.rank0.actPowerDownEnergy            0                       # Energy for active power-down per rank (pJ)
system.mem_ctrl.dram.rank0.prePowerDownEnergy            0                       # Energy for precharge power-down per rank (pJ)
system.mem_ctrl.dram.rank0.selfRefreshEnergy            0                       # Energy for self refresh per rank (pJ)
system.mem_ctrl.dram.rank0.totalEnergy   1150826827590                       # Total energy per rank (pJ)
system.mem_ctrl.dram.rank0.averagePower    484.328646                       # Core power per rank (mW)
system.mem_ctrl.dram.rank0.totalIdleTime            0                       # Total Idle time Per DRAM Rank
system.mem_ctrl.dram.rank0.pwrStateTime::IDLE 1772855314250                       # Time in different power states
system.mem_ctrl.dram.rank0.pwrStateTime::REF  79343940000                       # Time in different power states
system.mem_ctrl.dram.rank0.pwrStateTime::SREF            0                       # Time in different power states
system.mem_ctrl.dram.rank0.pwrStateTime::PRE_PDN            0                       # Time in different power states
system.mem_ctrl.dram.rank0.pwrStateTime::ACT 523928684750                       # Time in different power states
system.mem_ctrl.dram.rank0.pwrStateTime::ACT_PDN            0                       # Time in different power states
system.mem_ctrl.dram.rank1.actEnergy       2050772220                       # Energy for activate commands per rank (pJ)
system.mem_ctrl.dram.rank1.preEnergy       1089996105                       # Energy for precharge commands per rank (pJ)
system.mem_ctrl.dram.rank1.readEnergy      3992502360                       # Energy for read commands per rank (pJ)
system.mem_ctrl.dram.rank1.writeEnergy      730251900                       # Energy for write commands per rank (pJ)
system.mem_ctrl.dram.rank1.refreshEnergy 187569074160.000031                       # Energy for refresh commands per rank (pJ)
system.mem_ctrl.dram.rank1.actBackEnergy 233150364390                       # Energy for active background per rank (pJ)
system.mem_ctrl.dram.rank1.preBackEnergy 716095980000                       # Energy for precharge background per rank (pJ)
system.mem_ctrl.dram.rank1.actPowerDownEnergy            0                       # Energy for active power-down per rank (pJ)
system.mem_ctrl.dram.rank1.prePowerDownEnergy            0                       # Energy for precharge power-down per rank (pJ)
system.mem_ctrl.dram.rank1.selfRefreshEnergy            0                       # Energy for self refresh per rank (pJ)
system.mem_ctrl.dram.rank1.totalEnergy   1144678941135                       # Total energy per rank (pJ)
system.mem_ctrl.dram.rank1.averagePower    481.741291                       # Core power per rank (mW)
system.mem_ctrl.dram.rank1.totalIdleTime            0                       # Total Idle time Per DRAM Rank
system.mem_ctrl.dram.rank1.pwrStateTime::IDLE 1859455214250                       # Time in different power states
system.mem_ctrl.dram.rank1.pwrStateTime::REF  79343940000                       # Time in different power states
system.mem_ctrl.dram.rank1.pwrStateTime::SREF            0                       # Time in different power states
system.mem_ctrl.dram.rank1.pwrStateTime::PRE_PDN            0                       # Time in different power states
system.mem_ctrl.dram.rank1.pwrStateTime::ACT 437328784750                       # Time in different power states
system.mem_ctrl.dram.rank1.pwrStateTime::ACT_PDN            0                       # Time in different power states
system.mem_ctrl.power_state.pwrStateResidencyTicks::UNDEFINED 2376127939000                       # Cumulative time (in ticks) in various power states
system.membus.trans_dist::ReadResp             925382                       # Transaction distribution
system.membus.trans_dist::WritebackDirty       410299                       # Transaction distribution
system.membus.trans_dist::CleanEvict           693086                       # Transaction distribution
system.membus.trans_dist::ReadExReq            180437                       # Transaction distribution
system.membus.trans_dist::ReadExResp           180437                       # Transaction distribution
system.membus.trans_dist::ReadSharedReq        925382                       # Transaction distribution
system.membus.pkt_count_system.l2cache.mem_side_port::system.mem_ctrl.port      3315023                       # Packet count per connected requestor and responder (bytes)
system.membus.pkt_count_system.l2cache.mem_side_port::total      3315023                       # Packet count per connected requestor and responder (bytes)
system.membus.pkt_count::total                3315023                       # Packet count per connected requestor and responder (bytes)
system.membus.pkt_size_system.l2cache.mem_side_port::system.mem_ctrl.port     97031552                       # Cumulative packet size per connected requestor and responder (bytes)
system.membus.pkt_size_system.l2cache.mem_side_port::total     97031552                       # Cumulative packet size per connected requestor and responder (bytes)
system.membus.pkt_size::total                97031552                       # Cumulative packet size per connected requestor and responder (bytes)
system.membus.snoops                                0                       # Total snoops (count)
system.membus.snoopTraffic                          0                       # Total snoop traffic (bytes)
system.membus.snoop_fanout::samples           1105819                       # Request fanout histogram
system.membus.snoop_fanout::mean                    0                       # Request fanout histogram
system.membus.snoop_fanout::stdev                   0                       # Request fanout histogram
system.membus.snoop_fanout::underflows              0      0.00%      0.00% # Request fanout histogram
system.membus.snoop_fanout::0                 1105819    100.00%    100.00% # Request fanout histogram
system.membus.snoop_fanout::1                       0      0.00%    100.00% # Request fanout histogram
system.membus.snoop_fanout::overflows               0      0.00%    100.00% # Request fanout histogram
system.membus.snoop_fanout::min_value               0                       # Request fanout histogram
system.membus.snoop_fanout::max_value               0                       # Request fanout histogram
system.membus.snoop_fanout::total             1105819                       # Request fanout histogram
system.membus.power_state.pwrStateResidencyTicks::UNDEFINED 2376127939000                       # Cumulative time (in ticks) in various power states
system.membus.reqLayer2.occupancy          3850400000                       # Layer occupancy (ticks)
system.membus.reqLayer2.utilization               0.2                       # Layer utilization (%)
system.membus.respLayer0.occupancy         5929680000                       # Layer occupancy (ticks)
system.membus.respLayer0.utilization              0.2                       # Layer utilization (%)

---------- End Simulation Statistics   ----------
