
---------- Begin Simulation Statistics ----------
final_tick                               129728719000                       # Number of ticks from beginning of simulation (restored from checkpoints and never reset)
host_inst_rate                                 495493                       # Simulator instruction rate (inst/s)
host_mem_usage                                 647360                       # Number of bytes of host memory used
host_op_rate                                   856039                       # Simulator op (including micro ops) rate (op/s)
host_seconds                                    62.89                       # Real time elapsed on the host
host_tick_rate                             2062684463                       # Simulator tick rate (ticks/s)
sim_freq                                 1000000000000                       # Frequency of simulated ticks
sim_insts                                    31163025                       # Number of instructions simulated
sim_ops                                      53838930                       # Number of ops (including micro ops) simulated
sim_seconds                                  0.129729                       # Number of seconds simulated
sim_ticks                                129728719000                       # Number of ticks simulated
system.cpu.Branches                           3147837                       # Number of branches fetched
system.cpu.committedInsts                    31163025                       # Number of instructions committed
system.cpu.committedOps                      53838930                       # Number of ops (including micro ops) committed
system.cpu.idle_fraction                     0.000000                       # Percentage of idle cycles
system.cpu.not_idle_fraction                 1.000000                       # Percentage of non-idle cycles
system.cpu.numCycles                        129728719                       # number of cpu cycles simulated
system.cpu.numWorkItemsCompleted                    0                       # number of work items this cpu completed
system.cpu.numWorkItemsStarted                      0                       # number of work items this cpu started
system.cpu.num_busy_cycles               129728718.999000                       # Number of busy cycles
system.cpu.num_cc_register_reads             14821762                       # number of times the CC registers were read
system.cpu.num_cc_register_writes            15871069                       # number of times the CC registers were written
system.cpu.num_conditional_control_insts      2621487                       # number of instructions that are conditional controls
system.cpu.num_fp_alu_accesses               17960391                       # Number of float alu accesses
system.cpu.num_fp_insts                      17960391                       # number of float instructions
system.cpu.num_fp_register_reads             32379963                       # number of times the floating registers were read
system.cpu.num_fp_register_writes            16583137                       # number of times the floating registers were written
system.cpu.num_func_calls                      525556                       # number of times a function call or return occured
system.cpu.num_idle_cycles                   0.001000                       # Number of idle cycles
system.cpu.num_int_alu_accesses              39665968                       # Number of integer alu accesses
system.cpu.num_int_insts                     39665968                       # number of integer instructions
system.cpu.num_int_register_reads            74188878                       # number of times the integer registers were read
system.cpu.num_int_register_writes           30192703                       # number of times the integer registers were written
system.cpu.num_load_insts                     6721538                       # Number of load instructions
system.cpu.num_mem_refs                      10374024                       # number of memory refs
system.cpu.num_store_insts                    3652486                       # Number of store instructions
system.cpu.num_vec_alu_accesses                     0                       # Number of vector alu accesses
system.cpu.num_vec_insts                            0                       # number of vector instructions
system.cpu.num_vec_register_reads                   0                       # number of times the vector registers were read
system.cpu.num_vec_register_writes                  0                       # number of times the vector registers were written
system.cpu.op_class::No_OpClass                277415      0.52%      0.52% # Class of executed instruction
system.cpu.op_class::IntAlu                  29881471     55.50%     56.02% # Class of executed instruction
system.cpu.op_class::IntMult                       28      0.00%     56.02% # Class of executed instruction
system.cpu.op_class::IntDiv                       182      0.00%     56.02% # Class of executed instruction
system.cpu.op_class::FloatAdd                 1573060      2.92%     58.94% # Class of executed instruction
system.cpu.op_class::FloatCmp                       0      0.00%     58.94% # Class of executed instruction
system.cpu.op_class::FloatCvt                       0      0.00%     58.94% # Class of executed instruction
system.cpu.op_class::FloatMult                      0      0.00%     58.94% # Class of executed instruction
system.cpu.op_class::FloatMultAcc                   0      0.00%     58.94% # Class of executed instruction
system.cpu.op_class::FloatDiv                       0      0.00%     58.94% # Class of executed instruction
system.cpu.op_class::FloatMisc                      0      0.00%     58.94% # Class of executed instruction
system.cpu.op_class::FloatSqrt                      0      0.00%     58.94% # Class of executed instruction
system.cpu.op_class::SimdAdd                    32770      0.06%     59.00% # Class of executed instruction
system.cpu.op_class::SimdAddAcc                     0      0.00%     59.00% # Class of executed instruction
system.cpu.op_class::SimdAlu                  2097654      3.90%     62.90% # Class of executed instruction
system.cpu.op_class::SimdCmp                        6      0.00%     62.90% # Class of executed instruction
system.cpu.op_class::SimdCvt                    33224      0.06%     62.96% # Class of executed instruction
system.cpu.op_class::SimdMisc                 2163418      4.02%     66.98% # Class of executed instruction
system.cpu.op_class::SimdMult                       0      0.00%     66.98% # Class of executed instruction
system.cpu.op_class::SimdMultAcc                    0      0.00%     66.98% # Class of executed instruction
system.cpu.op_class::SimdShift                      6      0.00%     66.98% # Class of executed instruction
system.cpu.op_class::SimdShiftAcc                   0      0.00%     66.98% # Class of executed instruction
system.cpu.op_class::SimdDiv                        0      0.00%     66.98% # Class of executed instruction
system.cpu.op_class::SimdSqrt                       0      0.00%     66.98% # Class of executed instruction
system.cpu.op_class::SimdFloatAdd             1769545      3.29%     70.26% # Class of executed instruction
system.cpu.op_class::SimdFloatAlu                   0      0.00%     70.26% # Class of executed instruction
system.cpu.op_class::SimdFloatCmp                   0      0.00%     70.26% # Class of executed instruction
system.cpu.op_class::SimdFloatCvt             2162696      4.02%     74.28% # Class of executed instruction
system.cpu.op_class::SimdFloatDiv                   2      0.00%     74.28% # Class of executed instruction
system.cpu.op_class::SimdFloatMisc                  0      0.00%     74.28% # Class of executed instruction
system.cpu.op_class::SimdFloatMult            3473479      6.45%     80.73% # Class of executed instruction
system.cpu.op_class::SimdFloatMultAcc               0      0.00%     80.73% # Class of executed instruction
system.cpu.op_class::SimdFloatSqrt                  0      0.00%     80.73% # Class of executed instruction
system.cpu.op_class::SimdReduceAdd                  0      0.00%     80.73% # Class of executed instruction
system.cpu.op_class::SimdReduceAlu                  0      0.00%     80.73% # Class of executed instruction
system.cpu.op_class::SimdReduceCmp                  0      0.00%     80.73% # Class of executed instruction
system.cpu.op_class::SimdFloatReduceAdd             0      0.00%     80.73% # Class of executed instruction
system.cpu.op_class::SimdFloatReduceCmp             0      0.00%     80.73% # Class of executed instruction
system.cpu.op_class::SimdAes                        0      0.00%     80.73% # Class of executed instruction
system.cpu.op_class::SimdAesMix                     0      0.00%     80.73% # Class of executed instruction
system.cpu.op_class::SimdSha1Hash                   0      0.00%     80.73% # Class of executed instruction
system.cpu.op_class::SimdSha1Hash2                  0      0.00%     80.73% # Class of executed instruction
system.cpu.op_class::SimdSha256Hash                 0      0.00%     80.73% # Class of executed instruction
system.cpu.op_class::SimdSha256Hash2                0      0.00%     80.73% # Class of executed instruction
system.cpu.op_class::SimdShaSigma2                  0      0.00%     80.73% # Class of executed instruction
system.cpu.op_class::SimdShaSigma3                  0      0.00%     80.73% # Class of executed instruction
system.cpu.op_class::SimdPredAlu                    0      0.00%     80.73% # Class of executed instruction
system.cpu.op_class::MemRead                  5082678      9.44%     90.17% # Class of executed instruction
system.cpu.op_class::MemWrite                 3389653      6.30%     96.47% # Class of executed instruction
system.cpu.op_class::FloatMemRead             1638860      3.04%     99.51% # Class of executed instruction
system.cpu.op_class::FloatMemWrite             262833      0.49%    100.00% # Class of executed instruction
system.cpu.op_class::IprAccess                      0      0.00%    100.00% # Class of executed instruction
system.cpu.op_class::InstPrefetch                   0      0.00%    100.00% # Class of executed instruction
system.cpu.op_class::total                   53838980                       # Class of executed instruction
system.cpu.workload.numSyscalls                    46                       # Number of system calls
system.l2bus.snoop_filter.hit_multi_requests            0                       # Number of requests hitting in the snoop filter with multiple (>1) holders of the requested data.
system.l2bus.snoop_filter.hit_multi_snoops            0                       # Number of snoops hitting in the snoop filter with multiple (>1) holders of the requested data.
system.l2bus.snoop_filter.hit_single_requests       249850                       # Number of requests hitting in the snoop filter with a single holder of the requested data.
system.l2bus.snoop_filter.hit_single_snoops        62160                       # Number of snoops hitting in the snoop filter with a single holder of the requested data.
system.l2bus.snoop_filter.tot_requests         500979                       # Total number of requests made to the snoop filter.
system.l2bus.snoop_filter.tot_snoops            62160                       # Total number of snoops made to the snoop filter.
system.membus.snoop_filter.hit_multi_requests            0                       # Number of requests hitting in the snoop filter with multiple (>1) holders of the requested data.
system.membus.snoop_filter.hit_multi_snoops            0                       # Number of snoops hitting in the snoop filter with multiple (>1) holders of the requested data.
system.membus.snoop_filter.hit_single_requests       198725                       # Number of requests hitting in the snoop filter with a single holder of the requested data.
system.membus.snoop_filter.hit_single_snoops            0                       # Number of snoops hitting in the snoop filter with a single holder of the requested data.
system.membus.snoop_filter.tot_requests        399675                       # Total number of requests made to the snoop filter.
system.membus.snoop_filter.tot_snoops               0                       # Total number of snoops made to the snoop filter.
system.clk_domain.clock                          1000                       # Clock period in ticks
system.clk_domain.voltage_domain.voltage            1                       # Voltage in Volts
system.cpu.dcache.demand_hits::.cpu.data     10128032                       # number of demand (read+write) hits
system.cpu.dcache.demand_hits::total         10128032                       # number of demand (read+write) hits
system.cpu.dcache.overall_hits::.cpu.data     10128032                       # number of overall hits
system.cpu.dcache.overall_hits::total        10128032                       # number of overall hits
system.cpu.dcache.demand_misses::.cpu.data       250135                       # number of demand (read+write) misses
system.cpu.dcache.demand_misses::total         250135                       # number of demand (read+write) misses
system.cpu.dcache.overall_misses::.cpu.data       250135                       # number of overall misses
system.cpu.dcache.overall_misses::total        250135                       # number of overall misses
system.cpu.dcache.demand_miss_latency::.cpu.data  22671492000                       # number of demand (read+write) miss cycles
system.cpu.dcache.demand_miss_latency::total  22671492000                       # number of demand (read+write) miss cycles
system.cpu.dcache.overall_miss_latency::.cpu.data  22671492000                       # number of overall miss cycles
system.cpu.dcache.overall_miss_latency::total  22671492000                       # number of overall miss cycles
system.cpu.dcache.demand_accesses::.cpu.data     10378167                       # number of demand (read+write) accesses
system.cpu.dcache.demand_accesses::total     10378167                       # number of demand (read+write) accesses
system.cpu.dcache.overall_accesses::.cpu.data     10378167                       # number of overall (read+write) accesses
system.cpu.dcache.overall_accesses::total     10378167                       # number of overall (read+write) accesses
system.cpu.dcache.demand_miss_rate::.cpu.data     0.024102                       # miss rate for demand accesses
system.cpu.dcache.demand_miss_rate::total     0.024102                       # miss rate for demand accesses
system.cpu.dcache.overall_miss_rate::.cpu.data     0.024102                       # miss rate for overall accesses
system.cpu.dcache.overall_miss_rate::total     0.024102                       # miss rate for overall accesses
system.cpu.dcache.demand_avg_miss_latency::.cpu.data 90637.024007                       # average overall miss latency
system.cpu.dcache.demand_avg_miss_latency::total 90637.024007                       # average overall miss latency
system.cpu.dcache.overall_avg_miss_latency::.cpu.data 90637.024007                       # average overall miss latency
system.cpu.dcache.overall_avg_miss_latency::total 90637.024007                       # average overall miss latency
system.cpu.dcache.blocked_cycles::no_mshrs            0                       # number of cycles access was blocked
system.cpu.dcache.blocked_cycles::no_targets            0                       # number of cycles access was blocked
system.cpu.dcache.blocked::no_mshrs                 0                       # number of cycles access was blocked
system.cpu.dcache.blocked::no_targets               0                       # number of cycles access was blocked
system.cpu.dcache.avg_blocked_cycles::no_mshrs          nan                       # average number of cycles each access was blocked
system.cpu.dcache.avg_blocked_cycles::no_targets          nan                       # average number of cycles each access was blocked
system.cpu.dcache.writebacks::.writebacks       111148                       # number of writebacks
system.cpu.dcache.writebacks::total            111148                       # number of writebacks
system.cpu.dcache.demand_mshr_misses::.cpu.data       250135                       # number of demand (read+write) MSHR misses
system.cpu.dcache.demand_mshr_misses::total       250135                       # number of demand (read+write) MSHR misses
system.cpu.dcache.overall_mshr_misses::.cpu.data       250135                       # number of overall MSHR misses
system.cpu.dcache.overall_mshr_misses::total       250135                       # number of overall MSHR misses
system.cpu.dcache.demand_mshr_miss_latency::.cpu.data  22171222000                       # number of demand (read+write) MSHR miss cycles
system.cpu.dcache.demand_mshr_miss_latency::total  22171222000                       # number of demand (read+write) MSHR miss cycles
system.cpu.dcache.overall_mshr_miss_latency::.cpu.data  22171222000                       # number of overall MSHR miss cycles
system.cpu.dcache.overall_mshr_miss_latency::total  22171222000                       # number of overall MSHR miss cycles
system.cpu.dcache.demand_mshr_miss_rate::.cpu.data     0.024102                       # mshr miss rate for demand accesses
system.cpu.dcache.demand_mshr_miss_rate::total     0.024102                       # mshr miss rate for demand accesses
system.cpu.dcache.overall_mshr_miss_rate::.cpu.data     0.024102                       # mshr miss rate for overall accesses
system.cpu.dcache.overall_mshr_miss_rate::total     0.024102                       # mshr miss rate for overall accesses
system.cpu.dcache.demand_avg_mshr_miss_latency::.cpu.data 88637.024007                       # average overall mshr miss latency
system.cpu.dcache.demand_avg_mshr_miss_latency::total 88637.024007                       # average overall mshr miss latency
system.cpu.dcache.overall_avg_mshr_miss_latency::.cpu.data 88637.024007                       # average overall mshr miss latency
system.cpu.dcache.overall_avg_mshr_miss_latency::total 88637.024007                       # average overall mshr miss latency
system.cpu.dcache.replacements                 249111                       # number of replacements
system.cpu.dcache.ReadReq_hits::.cpu.data      6579484                       # number of ReadReq hits
system.cpu.dcache.ReadReq_hits::total         6579484                       # number of ReadReq hits
system.cpu.dcache.ReadReq_misses::.cpu.data       146176                       # number of ReadReq misses
system.cpu.dcache.ReadReq_misses::total        146176                       # number of ReadReq misses
system.cpu.dcache.ReadReq_miss_latency::.cpu.data  14735481000                       # number of ReadReq miss cycles
system.cpu.dcache.ReadReq_miss_latency::total  14735481000                       # number of ReadReq miss cycles
system.cpu.dcache.ReadReq_accesses::.cpu.data      6725660                       # number of ReadReq accesses(hits+misses)
system.cpu.dcache.ReadReq_accesses::total      6725660                       # number of ReadReq accesses(hits+misses)
system.cpu.dcache.ReadReq_miss_rate::.cpu.data     0.021734                       # miss rate for ReadReq accesses
system.cpu.dcache.ReadReq_miss_rate::total     0.021734                       # miss rate for ReadReq accesses
system.cpu.dcache.ReadReq_avg_miss_latency::.cpu.data 100806.431972                       # average ReadReq miss latency
system.cpu.dcache.ReadReq_avg_miss_latency::total 100806.431972                       # average ReadReq miss latency
system.cpu.dcache.ReadReq_mshr_misses::.cpu.data       146176                       # number of ReadReq MSHR misses
system.cpu.dcache.ReadReq_mshr_misses::total       146176                       # number of ReadReq MSHR misses
system.cpu.dcache.ReadReq_mshr_miss_latency::.cpu.data  14443129000                       # number of ReadReq MSHR miss cycles
system.cpu.dcache.ReadReq_mshr_miss_latency::total  14443129000                       # number of ReadReq MSHR miss cycles
system.cpu.dcache.ReadReq_mshr_miss_rate::.cpu.data     0.021734                       # mshr miss rate for ReadReq accesses
system.cpu.dcache.ReadReq_mshr_miss_rate::total     0.021734                       # mshr miss rate for ReadReq accesses
system.cpu.dcache.ReadReq_avg_mshr_miss_latency::.cpu.data 98806.431972                       # average ReadReq mshr miss latency
system.cpu.dcache.ReadReq_avg_mshr_miss_latency::total 98806.431972                       # average ReadReq mshr miss latency
system.cpu.dcache.WriteReq_hits::.cpu.data      3548548                       # number of WriteReq hits
system.cpu.dcache.WriteReq_hits::total        3548548                       # number of WriteReq hits
system.cpu.dcache.WriteReq_misses::.cpu.data       103959                       # number of WriteReq misses
system.cpu.dcache.WriteReq_misses::total       103959                       # number of WriteReq misses
system.cpu.dcache.WriteReq_miss_latency::.cpu.data   7936011000                       # number of WriteReq miss cycles
system.cpu.dcache.WriteReq_miss_latency::total   7936011000                       # number of WriteReq miss cycles
system.cpu.dcache.WriteReq_accesses::.cpu.data      3652507                       # number of WriteReq accesses(hits+misses)
system.cpu.dcache.WriteReq_accesses::total      3652507                       # number of WriteReq accesses(hits+misses)
system.cpu.dcache.WriteReq_miss_rate::.cpu.data     0.028462                       # miss rate for WriteReq accesses
system.cpu.dcache.WriteReq_miss_rate::total     0.028462                       # miss rate for WriteReq accesses
system.cpu.dcache.WriteReq_avg_miss_latency::.cpu.data 76337.892823                       # average WriteReq miss latency
system.cpu.dcache.WriteReq_avg_miss_latency::total 76337.892823                       # average WriteReq miss latency
system.cpu.dcache.WriteReq_mshr_misses::.cpu.data       103959                       # number of WriteReq MSHR misses
system.cpu.dcache.WriteReq_mshr_misses::total       103959                       # number of WriteReq MSHR misses
system.cpu.dcache.WriteReq_mshr_miss_latency::.cpu.data   7728093000                       # number of WriteReq MSHR miss cycles
system.cpu.dcache.WriteReq_mshr_miss_latency::total   7728093000                       # number of WriteReq MSHR miss cycles
system.cpu.dcache.WriteReq_mshr_miss_rate::.cpu.data     0.028462                       # mshr miss rate for WriteReq accesses
system.cpu.dcache.WriteReq_mshr_miss_rate::total     0.028462                       # mshr miss rate for WriteReq accesses
system.cpu.dcache.WriteReq_avg_mshr_miss_latency::.cpu.data 74337.892823                       # average WriteReq mshr miss latency
system.cpu.dcache.WriteReq_avg_mshr_miss_latency::total 74337.892823                       # average WriteReq mshr miss latency
system.cpu.dcache.power_state.pwrStateResidencyTicks::UNDEFINED 129728719000                       # Cumulative time (in ticks) in various power states
system.cpu.dcache.tags.tagsinuse           994.608470                       # Cycle average of tags in use
system.cpu.dcache.tags.total_refs            10378167                       # Total number of references to valid blocks.
system.cpu.dcache.tags.sampled_refs            250135                       # Sample count of references to valid blocks.
system.cpu.dcache.tags.avg_refs             41.490263                       # Average number of references to valid blocks.
system.cpu.dcache.tags.warmup_cycle            224000                       # Cycle when the warmup percentage was hit.
system.cpu.dcache.tags.occ_blocks::.cpu.data   994.608470                       # Average occupied blocks per requestor
system.cpu.dcache.tags.occ_percent::.cpu.data     0.971297                       # Average percentage of cache occupancy
system.cpu.dcache.tags.occ_percent::total     0.971297                       # Average percentage of cache occupancy
system.cpu.dcache.tags.occ_task_id_blocks::1024         1024                       # Occupied blocks per task id
system.cpu.dcache.tags.age_task_id_blocks_1024::0           20                       # Occupied blocks per task id
system.cpu.dcache.tags.age_task_id_blocks_1024::1           42                       # Occupied blocks per task id
system.cpu.dcache.tags.age_task_id_blocks_1024::2          962                       # Occupied blocks per task id
system.cpu.dcache.tags.occ_task_id_percent::1024            1                       # Percentage of cache occupancy per task id
system.cpu.dcache.tags.tag_accesses          21006469                       # Number of tag accesses
system.cpu.dcache.tags.data_accesses         21006469                       # Number of data accesses
system.cpu.dcache.tags.power_state.pwrStateResidencyTicks::UNDEFINED 129728719000                       # Cumulative time (in ticks) in various power states
system.cpu.dtb.rdAccesses                     6725661                       # TLB accesses on read requests
system.cpu.dtb.wrAccesses                     3652510                       # TLB accesses on write requests
system.cpu.dtb.rdMisses                          1853                       # TLB misses on read requests
system.cpu.dtb.wrMisses                         35717                       # TLB misses on write requests
system.cpu.dtb.walker.power_state.pwrStateResidencyTicks::UNDEFINED 129728719000                       # Cumulative time (in ticks) in various power states
system.cpu.icache.demand_hits::.cpu.inst     43359474                       # number of demand (read+write) hits
system.cpu.icache.demand_hits::total         43359474                       # number of demand (read+write) hits
system.cpu.icache.overall_hits::.cpu.inst     43359474                       # number of overall hits
system.cpu.icache.overall_hits::total        43359474                       # number of overall hits
system.cpu.icache.demand_misses::.cpu.inst          994                       # number of demand (read+write) misses
system.cpu.icache.demand_misses::total            994                       # number of demand (read+write) misses
system.cpu.icache.overall_misses::.cpu.inst          994                       # number of overall misses
system.cpu.icache.overall_misses::total           994                       # number of overall misses
system.cpu.icache.demand_miss_latency::.cpu.inst     90571000                       # number of demand (read+write) miss cycles
system.cpu.icache.demand_miss_latency::total     90571000                       # number of demand (read+write) miss cycles
system.cpu.icache.overall_miss_latency::.cpu.inst     90571000                       # number of overall miss cycles
system.cpu.icache.overall_miss_latency::total     90571000                       # number of overall miss cycles
system.cpu.icache.demand_accesses::.cpu.inst     43360468                       # number of demand (read+write) accesses
system.cpu.icache.demand_accesses::total     43360468                       # number of demand (read+write) accesses
system.cpu.icache.overall_accesses::.cpu.inst     43360468                       # number of overall (read+write) accesses
system.cpu.icache.overall_accesses::total     43360468                       # number of overall (read+write) accesses
system.cpu.icache.demand_miss_rate::.cpu.inst     0.000023                       # miss rate for demand accesses
system.cpu.icache.demand_miss_rate::total     0.000023                       # miss rate for demand accesses
system.cpu.icache.overall_miss_rate::.cpu.inst     0.000023                       # miss rate for overall accesses
system.cpu.icache.overall_miss_rate::total     0.000023                       # miss rate for overall accesses
system.cpu.icache.demand_avg_miss_latency::.cpu.inst 91117.706237                       # average overall miss latency
system.cpu.icache.demand_avg_miss_latency::total 91117.706237                       # average overall miss latency
system.cpu.icache.overall_avg_miss_latency::.cpu.inst 91117.706237                       # average overall miss latency
system.cpu.icache.overall_avg_miss_latency::total 91117.706237                       # average overall miss latency
system.cpu.icache.blocked_cycles::no_mshrs            0                       # number of cycles access was blocked
system.cpu.icache.blocked_cycles::no_targets            0                       # number of cycles access was blocked
system.cpu.icache.blocked::no_mshrs                 0                       # number of cycles access was blocked
system.cpu.icache.blocked::no_targets               0                       # number of cycles access was blocked
system.cpu.icache.avg_blocked_cycles::no_mshrs          nan                       # average number of cycles each access was blocked
system.cpu.icache.avg_blocked_cycles::no_targets          nan                       # average number of cycles each access was blocked
system.cpu.icache.demand_mshr_misses::.cpu.inst          994                       # number of demand (read+write) MSHR misses
system.cpu.icache.demand_mshr_misses::total          994                       # number of demand (read+write) MSHR misses
system.cpu.icache.overall_mshr_misses::.cpu.inst          994                       # number of overall MSHR misses
system.cpu.icache.overall_mshr_misses::total          994                       # number of overall MSHR misses
system.cpu.icache.demand_mshr_miss_latency::.cpu.inst     88583000                       # number of demand (read+write) MSHR miss cycles
system.cpu.icache.demand_mshr_miss_latency::total     88583000                       # number of demand (read+write) MSHR miss cycles
system.cpu.icache.overall_mshr_miss_latency::.cpu.inst     88583000                       # number of overall MSHR miss cycles
system.cpu.icache.overall_mshr_miss_latency::total     88583000                       # number of overall MSHR miss cycles
system.cpu.icache.demand_mshr_miss_rate::.cpu.inst     0.000023                       # mshr miss rate for demand accesses
system.cpu.icache.demand_mshr_miss_rate::total     0.000023                       # mshr miss rate for demand accesses
system.cpu.icache.overall_mshr_miss_rate::.cpu.inst     0.000023                       # mshr miss rate for overall accesses
system.cpu.icache.overall_mshr_miss_rate::total     0.000023                       # mshr miss rate for overall accesses
system.cpu.icache.demand_avg_mshr_miss_latency::.cpu.inst 89117.706237                       # average overall mshr miss latency
system.cpu.icache.demand_avg_mshr_miss_latency::total 89117.706237                       # average overall mshr miss latency
system.cpu.icache.overall_avg_mshr_miss_latency::.cpu.inst 89117.706237                       # average overall mshr miss latency
system.cpu.icache.overall_avg_mshr_miss_latency::total 89117.706237                       # average overall mshr miss latency
system.cpu.icache.replacements                    739                       # number of replacements
system.cpu.icache.ReadReq_hits::.cpu.inst     43359474                       # number of ReadReq hits
system.cpu.icache.ReadReq_hits::total        43359474                       # number of ReadReq hits
system.cpu.icache.ReadReq_misses::.cpu.inst          994                       # number of ReadReq misses
system.cpu.icache.ReadReq_misses::total           994                       # number of ReadReq misses
system.cpu.icache.ReadReq_miss_latency::.cpu.inst     90571000                       # number of ReadReq miss cycles
system.cpu.icache.ReadReq_miss_latency::total     90571000                       # number of ReadReq miss cycles
system.cpu.icache.ReadReq_accesses::.cpu.inst     43360468                       # number of ReadReq accesses(hits+misses)
system.cpu.icache.ReadReq_accesses::total     43360468                       # number of ReadReq accesses(hits+misses)
system.cpu.icache.ReadReq_miss_rate::.cpu.inst     0.000023                       # miss rate for ReadReq accesses
system.cpu.icache.ReadReq_miss_rate::total     0.000023                       # miss rate for ReadReq accesses
system.cpu.icache.ReadReq_avg_miss_latency::.cpu.inst 91117.706237                       # average ReadReq miss latency
system.cpu.icache.ReadReq_avg_miss_latency::total 91117.706237                       # average ReadReq miss latency
system.cpu.icache.ReadReq_mshr_misses::.cpu.inst          994                       # number of ReadReq MSHR misses
system.cpu.icache.ReadReq_mshr_misses::total          994                       # number of ReadReq MSHR misses
system.cpu.icache.ReadReq_mshr_miss_latency::.cpu.inst     88583000                       # number of ReadReq MSHR miss cycles
system.cpu.icache.ReadReq_mshr_miss_latency::total     88583000                       # number of ReadReq MSHR miss cycles
system.cpu.icache.ReadReq_mshr_miss_rate::.cpu.inst     0.000023                       # mshr miss rate for ReadReq accesses
system.cpu.icache.ReadReq_mshr_miss_rate::total     0.000023                       # mshr miss rate for ReadReq accesses
system.cpu.icache.ReadReq_avg_mshr_miss_latency::.cpu.inst 89117.706237                       # average ReadReq mshr miss latency
system.cpu.icache.ReadReq_avg_mshr_miss_latency::total 89117.706237                       # average ReadReq mshr miss latency
system.cpu.icache.power_state.pwrStateResidencyTicks::UNDEFINED 129728719000                       # Cumulative time (in ticks) in various power states
system.cpu.icache.tags.tagsinuse           253.915333                       # Cycle average of tags in use
system.cpu.icache.tags.total_refs            43360468                       # Total number of references to valid blocks.
system.cpu.icache.tags.sampled_refs               994                       # Sample count of references to valid blocks.
system.cpu.icache.tags.avg_refs          43622.201207                       # Average number of references to valid blocks.
system.cpu.icache.tags.warmup_cycle            107000                       # Cycle when the warmup percentage was hit.
system.cpu.icache.tags.occ_blocks::.cpu.inst   253.915333                       # Average occupied blocks per requestor
system.cpu.icache.tags.occ_percent::.cpu.inst     0.991857                       # Average percentage of cache occupancy
system.cpu.icache.tags.occ_percent::total     0.991857                       # Average percentage of cache occupancy
system.cpu.icache.tags.occ_task_id_blocks::1024          255                       # Occupied blocks per task id
system.cpu.icache.tags.age_task_id_blocks_1024::0           52                       # Occupied blocks per task id
system.cpu.icache.tags.age_task_id_blocks_1024::1          119                       # Occupied blocks per task id
system.cpu.icache.tags.age_task_id_blocks_1024::2            9                       # Occupied blocks per task id
system.cpu.icache.tags.age_task_id_blocks_1024::3            1                       # Occupied blocks per task id
system.cpu.icache.tags.age_task_id_blocks_1024::4           74                       # Occupied blocks per task id
system.cpu.icache.tags.occ_task_id_percent::1024     0.996094                       # Percentage of cache occupancy per task id
system.cpu.icache.tags.tag_accesses          86721930                       # Number of tag accesses
system.cpu.icache.tags.data_accesses         86721930                       # Number of data accesses
system.cpu.icache.tags.power_state.pwrStateResidencyTicks::UNDEFINED 129728719000                       # Cumulative time (in ticks) in various power states
system.cpu.interrupts.clk_domain.clock          16000                       # Clock period in ticks
system.cpu.itb.rdAccesses                           0                       # TLB accesses on read requests
system.cpu.itb.wrAccesses                    43360468                       # TLB accesses on write requests
system.cpu.itb.rdMisses                             0                       # TLB misses on read requests
system.cpu.itb.wrMisses                            59                       # TLB misses on write requests
system.cpu.itb.walker.power_state.pwrStateResidencyTicks::UNDEFINED 129728719000                       # Cumulative time (in ticks) in various power states
system.cpu.power_state.pwrStateResidencyTicks::ON 129728719000                       # Cumulative time (in ticks) in various power states
system.cpu.thread_0.numInsts                        0                       # Number of Instructions committed
system.cpu.thread_0.numOps                          0                       # Number of Ops committed
system.cpu.thread_0.numMemRefs                      0                       # Number of Memory References
system.l2bus.trans_dist::ReadResp              147170                       # Transaction distribution
system.l2bus.trans_dist::WritebackDirty        172023                       # Transaction distribution
system.l2bus.trans_dist::CleanEvict            305982                       # Transaction distribution
system.l2bus.trans_dist::ReadExReq             103959                       # Transaction distribution
system.l2bus.trans_dist::ReadExResp            103959                       # Transaction distribution
system.l2bus.trans_dist::ReadSharedReq         147170                       # Transaction distribution
system.l2bus.pkt_count_system.cpu.icache.mem_side_port::system.l2cache.cpu_side_port         2727                       # Packet count per connected requestor and responder (bytes)
system.l2bus.pkt_count_system.cpu.dcache.mem_side_port::system.l2cache.cpu_side_port       749381                       # Packet count per connected requestor and responder (bytes)
system.l2bus.pkt_count::total                  752108                       # Packet count per connected requestor and responder (bytes)
system.l2bus.pkt_size_system.cpu.icache.mem_side_port::system.l2cache.cpu_side_port        63616                       # Cumulative packet size per connected requestor and responder (bytes)
system.l2bus.pkt_size_system.cpu.dcache.mem_side_port::system.l2cache.cpu_side_port     23122112                       # Cumulative packet size per connected requestor and responder (bytes)
system.l2bus.pkt_size::total                 23185728                       # Cumulative packet size per connected requestor and responder (bytes)
system.l2bus.snoops                            228155                       # Total snoops (count)
system.l2bus.snoopTraffic                     3896000                       # Total snoop traffic (bytes)
system.l2bus.snoop_fanout::samples             479284                       # Request fanout histogram
system.l2bus.snoop_fanout::mean              0.129693                       # Request fanout histogram
system.l2bus.snoop_fanout::stdev             0.335966                       # Request fanout histogram
system.l2bus.snoop_fanout::underflows               0      0.00%      0.00% # Request fanout histogram
system.l2bus.snoop_fanout::0                   417124     87.03%     87.03% # Request fanout histogram
system.l2bus.snoop_fanout::1                    62160     12.97%    100.00% # Request fanout histogram
system.l2bus.snoop_fanout::2                        0      0.00%    100.00% # Request fanout histogram
system.l2bus.snoop_fanout::overflows                0      0.00%    100.00% # Request fanout histogram
system.l2bus.snoop_fanout::min_value                0                       # Request fanout histogram
system.l2bus.snoop_fanout::max_value                1                       # Request fanout histogram
system.l2bus.snoop_fanout::total               479284                       # Request fanout histogram
system.l2bus.power_state.pwrStateResidencyTicks::UNDEFINED 129728719000                       # Cumulative time (in ticks) in various power states
system.l2bus.reqLayer0.occupancy            723275000                       # Layer occupancy (ticks)
system.l2bus.reqLayer0.utilization                0.6                       # Layer utilization (%)
system.l2bus.respLayer0.occupancy             2982000                       # Layer occupancy (ticks)
system.l2bus.respLayer0.utilization               0.0                       # Layer utilization (%)
system.l2bus.respLayer1.occupancy           750405000                       # Layer occupancy (ticks)
system.l2bus.respLayer1.utilization               0.6                       # Layer utilization (%)
system.l2cache.demand_hits::.cpu.inst             163                       # number of demand (read+write) hits
system.l2cache.demand_hits::.cpu.data           50016                       # number of demand (read+write) hits
system.l2cache.demand_hits::total               50179                       # number of demand (read+write) hits
system.l2cache.overall_hits::.cpu.inst            163                       # number of overall hits
system.l2cache.overall_hits::.cpu.data          50016                       # number of overall hits
system.l2cache.overall_hits::total              50179                       # number of overall hits
system.l2cache.demand_misses::.cpu.inst           831                       # number of demand (read+write) misses
system.l2cache.demand_misses::.cpu.data        200119                       # number of demand (read+write) misses
system.l2cache.demand_misses::total            200950                       # number of demand (read+write) misses
system.l2cache.overall_misses::.cpu.inst          831                       # number of overall misses
system.l2cache.overall_misses::.cpu.data       200119                       # number of overall misses
system.l2cache.overall_misses::total           200950                       # number of overall misses
system.l2cache.demand_miss_latency::.cpu.inst     82178000                       # number of demand (read+write) miss cycles
system.l2cache.demand_miss_latency::.cpu.data  20369908000                       # number of demand (read+write) miss cycles
system.l2cache.demand_miss_latency::total  20452086000                       # number of demand (read+write) miss cycles
system.l2cache.overall_miss_latency::.cpu.inst     82178000                       # number of overall miss cycles
system.l2cache.overall_miss_latency::.cpu.data  20369908000                       # number of overall miss cycles
system.l2cache.overall_miss_latency::total  20452086000                       # number of overall miss cycles
system.l2cache.demand_accesses::.cpu.inst          994                       # number of demand (read+write) accesses
system.l2cache.demand_accesses::.cpu.data       250135                       # number of demand (read+write) accesses
system.l2cache.demand_accesses::total          251129                       # number of demand (read+write) accesses
system.l2cache.overall_accesses::.cpu.inst          994                       # number of overall (read+write) accesses
system.l2cache.overall_accesses::.cpu.data       250135                       # number of overall (read+write) accesses
system.l2cache.overall_accesses::total         251129                       # number of overall (read+write) accesses
system.l2cache.demand_miss_rate::.cpu.inst     0.836016                       # miss rate for demand accesses
system.l2cache.demand_miss_rate::.cpu.data     0.800044                       # miss rate for demand accesses
system.l2cache.demand_miss_rate::total       0.800186                       # miss rate for demand accesses
system.l2cache.overall_miss_rate::.cpu.inst     0.836016                       # miss rate for overall accesses
system.l2cache.overall_miss_rate::.cpu.data     0.800044                       # miss rate for overall accesses
system.l2cache.overall_miss_rate::total      0.800186                       # miss rate for overall accesses
system.l2cache.demand_avg_miss_latency::.cpu.inst 98890.493381                       # average overall miss latency
system.l2cache.demand_avg_miss_latency::.cpu.data 101788.975560                       # average overall miss latency
system.l2cache.demand_avg_miss_latency::total 101776.989301                       # average overall miss latency
system.l2cache.overall_avg_miss_latency::.cpu.inst 98890.493381                       # average overall miss latency
system.l2cache.overall_avg_miss_latency::.cpu.data 101788.975560                       # average overall miss latency
system.l2cache.overall_avg_miss_latency::total 101776.989301                       # average overall miss latency
system.l2cache.blocked_cycles::no_mshrs             0                       # number of cycles access was blocked
system.l2cache.blocked_cycles::no_targets            0                       # number of cycles access was blocked
system.l2cache.blocked::no_mshrs                    0                       # number of cycles access was blocked
system.l2cache.blocked::no_targets                  0                       # number of cycles access was blocked
system.l2cache.avg_blocked_cycles::no_mshrs          nan                       # average number of cycles each access was blocked
system.l2cache.avg_blocked_cycles::no_targets          nan                       # average number of cycles each access was blocked
system.l2cache.writebacks::.writebacks          60875                       # number of writebacks
system.l2cache.writebacks::total                60875                       # number of writebacks
system.l2cache.demand_mshr_misses::.cpu.inst          831                       # number of demand (read+write) MSHR misses
system.l2cache.demand_mshr_misses::.cpu.data       200119                       # number of demand (read+write) MSHR misses
system.l2cache.demand_mshr_misses::total       200950                       # number of demand (read+write) MSHR misses
system.l2cache.overall_mshr_misses::.cpu.inst          831                       # number of overall MSHR misses
system.l2cache.overall_mshr_misses::.cpu.data       200119                       # number of overall MSHR misses
system.l2cache.overall_mshr_misses::total       200950                       # number of overall MSHR misses
system.l2cache.demand_mshr_miss_latency::.cpu.inst     65558000                       # number of demand (read+write) MSHR miss cycles
system.l2cache.demand_mshr_miss_latency::.cpu.data  16367528000                       # number of demand (read+write) MSHR miss cycles
system.l2cache.demand_mshr_miss_latency::total  16433086000                       # number of demand (read+write) MSHR miss cycles
system.l2cache.overall_mshr_miss_latency::.cpu.inst     65558000                       # number of overall MSHR miss cycles
system.l2cache.overall_mshr_miss_latency::.cpu.data  16367528000                       # number of overall MSHR miss cycles
system.l2cache.overall_mshr_miss_latency::total  16433086000                       # number of overall MSHR miss cycles
system.l2cache.demand_mshr_miss_rate::.cpu.inst     0.836016                       # mshr miss rate for demand accesses
system.l2cache.demand_mshr_miss_rate::.cpu.data     0.800044                       # mshr miss rate for demand accesses
system.l2cache.demand_mshr_miss_rate::total     0.800186                       # mshr miss rate for demand accesses
system.l2cache.overall_mshr_miss_rate::.cpu.inst     0.836016                       # mshr miss rate for overall accesses
system.l2cache.overall_mshr_miss_rate::.cpu.data     0.800044                       # mshr miss rate for overall accesses
system.l2cache.overall_mshr_miss_rate::total     0.800186                       # mshr miss rate for overall accesses
system.l2cache.demand_avg_mshr_miss_latency::.cpu.inst 78890.493381                       # average overall mshr miss latency
system.l2cache.demand_avg_mshr_miss_latency::.cpu.data 81788.975560                       # average overall mshr miss latency
system.l2cache.demand_avg_mshr_miss_latency::total 81776.989301                       # average overall mshr miss latency
system.l2cache.overall_avg_mshr_miss_latency::.cpu.inst 78890.493381                       # average overall mshr miss latency
system.l2cache.overall_avg_mshr_miss_latency::.cpu.data 81788.975560                       # average overall mshr miss latency
system.l2cache.overall_avg_mshr_miss_latency::total 81776.989301                       # average overall mshr miss latency
system.l2cache.replacements                    226073                       # number of replacements
system.l2cache.WritebackDirty_hits::.writebacks       110870                       # number of WritebackDirty hits
system.l2cache.WritebackDirty_hits::total       110870                       # number of WritebackDirty hits
system.l2cache.WritebackDirty_misses::.writebacks          278                       # number of WritebackDirty misses
system.l2cache.WritebackDirty_misses::total          278                       # number of WritebackDirty misses
system.l2cache.WritebackDirty_accesses::.writebacks       111148                       # number of WritebackDirty accesses(hits+misses)
system.l2cache.WritebackDirty_accesses::total       111148                       # number of WritebackDirty accesses(hits+misses)
system.l2cache.WritebackDirty_miss_rate::.writebacks     0.002501                       # miss rate for WritebackDirty accesses
system.l2cache.WritebackDirty_miss_rate::total     0.002501                       # miss rate for WritebackDirty accesses
system.l2cache.WritebackDirty_mshr_misses::.writebacks          278                       # number of WritebackDirty MSHR misses
system.l2cache.WritebackDirty_mshr_misses::total          278                       # number of WritebackDirty MSHR misses
system.l2cache.WritebackDirty_mshr_miss_rate::.writebacks     0.002501                       # mshr miss rate for WritebackDirty accesses
system.l2cache.WritebackDirty_mshr_miss_rate::total     0.002501                       # mshr miss rate for WritebackDirty accesses
system.l2cache.CleanEvict_mshr_misses::.writebacks        32452                       # number of CleanEvict MSHR misses
system.l2cache.CleanEvict_mshr_misses::total        32452                       # number of CleanEvict MSHR misses
system.l2cache.CleanEvict_mshr_miss_rate::.writebacks          inf                       # mshr miss rate for CleanEvict accesses
system.l2cache.CleanEvict_mshr_miss_rate::total          inf                       # mshr miss rate for CleanEvict accesses
system.l2cache.ReadExReq_hits::.cpu.data        44397                       # number of ReadExReq hits
system.l2cache.ReadExReq_hits::total            44397                       # number of ReadExReq hits
system.l2cache.ReadExReq_misses::.cpu.data        59562                       # number of ReadExReq misses
system.l2cache.ReadExReq_misses::total          59562                       # number of ReadExReq misses
system.l2cache.ReadExReq_miss_latency::.cpu.data   6483813000                       # number of ReadExReq miss cycles
system.l2cache.ReadExReq_miss_latency::total   6483813000                       # number of ReadExReq miss cycles
system.l2cache.ReadExReq_accesses::.cpu.data       103959                       # number of ReadExReq accesses(hits+misses)
system.l2cache.ReadExReq_accesses::total       103959                       # number of ReadExReq accesses(hits+misses)
system.l2cache.ReadExReq_miss_rate::.cpu.data     0.572937                       # miss rate for ReadExReq accesses
system.l2cache.ReadExReq_miss_rate::total     0.572937                       # miss rate for ReadExReq accesses
system.l2cache.ReadExReq_avg_miss_latency::.cpu.data 108858.214969                       # average ReadExReq miss latency
system.l2cache.ReadExReq_avg_miss_latency::total 108858.214969                       # average ReadExReq miss latency
system.l2cache.ReadExReq_mshr_misses::.cpu.data        59562                       # number of ReadExReq MSHR misses
system.l2cache.ReadExReq_mshr_misses::total        59562                       # number of ReadExReq MSHR misses
system.l2cache.ReadExReq_mshr_miss_latency::.cpu.data   5292573000                       # number of ReadExReq MSHR miss cycles
system.l2cache.ReadExReq_mshr_miss_latency::total   5292573000                       # number of ReadExReq MSHR miss cycles
system.l2cache.ReadExReq_mshr_miss_rate::.cpu.data     0.572937                       # mshr miss rate for ReadExReq accesses
system.l2cache.ReadExReq_mshr_miss_rate::total     0.572937                       # mshr miss rate for ReadExReq accesses
system.l2cache.ReadExReq_avg_mshr_miss_latency::.cpu.data 88858.214969                       # average ReadExReq mshr miss latency
system.l2cache.ReadExReq_avg_mshr_miss_latency::total 88858.214969                       # average ReadExReq mshr miss latency
system.l2cache.ReadSharedReq_hits::.cpu.inst          163                       # number of ReadSharedReq hits
system.l2cache.ReadSharedReq_hits::.cpu.data         5619                       # number of ReadSharedReq hits
system.l2cache.ReadSharedReq_hits::total         5782                       # number of ReadSharedReq hits
system.l2cache.ReadSharedReq_misses::.cpu.inst          831                       # number of ReadSharedReq misses
system.l2cache.ReadSharedReq_misses::.cpu.data       140557                       # number of ReadSharedReq misses
system.l2cache.ReadSharedReq_misses::total       141388                       # number of ReadSharedReq misses
system.l2cache.ReadSharedReq_miss_latency::.cpu.inst     82178000                       # number of ReadSharedReq miss cycles
system.l2cache.ReadSharedReq_miss_latency::.cpu.data  13886095000                       # number of ReadSharedReq miss cycles
system.l2cache.ReadSharedReq_miss_latency::total  13968273000                       # number of ReadSharedReq miss cycles
system.l2cache.ReadSharedReq_accesses::.cpu.inst          994                       # number of ReadSharedReq accesses(hits+misses)
system.l2cache.ReadSharedReq_accesses::.cpu.data       146176                       # number of ReadSharedReq accesses(hits+misses)
system.l2cache.ReadSharedReq_accesses::total       147170                       # number of ReadSharedReq accesses(hits+misses)
system.l2cache.ReadSharedReq_miss_rate::.cpu.inst     0.836016                       # miss rate for ReadSharedReq accesses
system.l2cache.ReadSharedReq_miss_rate::.cpu.data     0.961560                       # miss rate for ReadSharedReq accesses
system.l2cache.ReadSharedReq_miss_rate::total     0.960712                       # miss rate for ReadSharedReq accesses
system.l2cache.ReadSharedReq_avg_miss_latency::.cpu.inst 98890.493381                       # average ReadSharedReq miss latency
system.l2cache.ReadSharedReq_avg_miss_latency::.cpu.data 98793.336511                       # average ReadSharedReq miss latency
system.l2cache.ReadSharedReq_avg_miss_latency::total 98793.907545                       # average ReadSharedReq miss latency
system.l2cache.ReadSharedReq_mshr_misses::.cpu.inst          831                       # number of ReadSharedReq MSHR misses
system.l2cache.ReadSharedReq_mshr_misses::.cpu.data       140557                       # number of ReadSharedReq MSHR misses
system.l2cache.ReadSharedReq_mshr_misses::total       141388                       # number of ReadSharedReq MSHR misses
system.l2cache.ReadSharedReq_mshr_miss_latency::.cpu.inst     65558000                       # number of ReadSharedReq MSHR miss cycles
system.l2cache.ReadSharedReq_mshr_miss_latency::.cpu.data  11074955000                       # number of ReadSharedReq MSHR miss cycles
system.l2cache.ReadSharedReq_mshr_miss_latency::total  11140513000                       # number of ReadSharedReq MSHR miss cycles
system.l2cache.ReadSharedReq_mshr_miss_rate::.cpu.inst     0.836016                       # mshr miss rate for ReadSharedReq accesses
system.l2cache.ReadSharedReq_mshr_miss_rate::.cpu.data     0.961560                       # mshr miss rate for ReadSharedReq accesses
system.l2cache.ReadSharedReq_mshr_miss_rate::total     0.960712                       # mshr miss rate for ReadSharedReq accesses
system.l2cache.ReadSharedReq_avg_mshr_miss_latency::.cpu.inst 78890.493381                       # average ReadSharedReq mshr miss latency
system.l2cache.ReadSharedReq_avg_mshr_miss_latency::.cpu.data 78793.336511                       # average ReadSharedReq mshr miss latency
system.l2cache.ReadSharedReq_avg_mshr_miss_latency::total 78793.907545                       # average ReadSharedReq mshr miss latency
system.l2cache.power_state.pwrStateResidencyTicks::UNDEFINED 129728719000                       # Cumulative time (in ticks) in various power states
system.l2cache.replacement_policy.totalBypasses         2360                       # Total number of cache bypasses
system.l2cache.replacement_policy.effectiveBypasses          393                       # Bypasses that correctly skipped non-reused blocks
system.l2cache.replacement_policy.ineffectiveBypasses          106                       # Bypasses that incorrectly skipped requested blocks
system.l2cache.replacement_policy.virtualEffectiveBypasses         2660                       # Virtual bypasses correctly predicting non-reused blocks
system.l2cache.replacement_policy.virtualIneffectiveBypasses         4441                       # Virtual bypasses incorrectly predicting requested blocks
system.l2cache.tags.tagsinuse             1957.171713                       # Cycle average of tags in use
system.l2cache.tags.total_refs                 466167                       # Total number of references to valid blocks.
system.l2cache.tags.sampled_refs               228121                       # Sample count of references to valid blocks.
system.l2cache.tags.avg_refs                 2.043508                       # Average number of references to valid blocks.
system.l2cache.tags.warmup_cycle             15120000                       # Cycle when the warmup percentage was hit.
system.l2cache.tags.occ_blocks::.writebacks   275.870551                       # Average occupied blocks per requestor
system.l2cache.tags.occ_blocks::.cpu.inst    63.454028                       # Average occupied blocks per requestor
system.l2cache.tags.occ_blocks::.cpu.data  1617.847133                       # Average occupied blocks per requestor
system.l2cache.tags.occ_percent::.writebacks     0.134702                       # Average percentage of cache occupancy
system.l2cache.tags.occ_percent::.cpu.inst     0.030983                       # Average percentage of cache occupancy
system.l2cache.tags.occ_percent::.cpu.data     0.789964                       # Average percentage of cache occupancy
system.l2cache.tags.occ_percent::total       0.955650                       # Average percentage of cache occupancy
system.l2cache.tags.occ_task_id_blocks::1024         2048                       # Occupied blocks per task id
system.l2cache.tags.age_task_id_blocks_1024::0           75                       # Occupied blocks per task id
system.l2cache.tags.age_task_id_blocks_1024::1          214                       # Occupied blocks per task id
system.l2cache.tags.age_task_id_blocks_1024::2         1759                       # Occupied blocks per task id
system.l2cache.tags.occ_task_id_percent::1024            1                       # Percentage of cache occupancy per task id
system.l2cache.tags.tag_accesses              4235953                       # Number of tag accesses
system.l2cache.tags.data_accesses             4235953                       # Number of data accesses
system.l2cache.tags.power_state.pwrStateResidencyTicks::UNDEFINED 129728719000                       # Cumulative time (in ticks) in various power states
system.mem_ctrl.avgPriority_.writebacks::samples     61151.00                       # Average QoS priority value for accepted requests
system.mem_ctrl.avgPriority_.cpu.inst::samples       831.00                       # Average QoS priority value for accepted requests
system.mem_ctrl.avgPriority_.cpu.data::samples    199884.00                       # Average QoS priority value for accepted requests
system.mem_ctrl.priorityMinLatency       0.000000018750                       # per QoS priority minimum request to response latency (s)
system.mem_ctrl.priorityMaxLatency       0.034902867250                       # per QoS priority maximum request to response latency (s)
system.mem_ctrl.numReadWriteTurnArounds          3414                       # Number of turnarounds from READ to WRITE
system.mem_ctrl.numWriteReadTurnArounds          3414                       # Number of turnarounds from WRITE to READ
system.mem_ctrl.numStayReadState               495371                       # Number of times bus staying in READ state
system.mem_ctrl.numStayWriteState               57766                       # Number of times bus staying in WRITE state
system.mem_ctrl.readReqs                       200950                       # Number of read requests accepted
system.mem_ctrl.writeReqs                       61153                       # Number of write requests accepted
system.mem_ctrl.readBursts                     200950                       # Number of controller read bursts, including those serviced by the write queue
system.mem_ctrl.writeBursts                     61153                       # Number of controller write bursts, including those merged in the write queue
system.mem_ctrl.servicedByWrQ                     235                       # Number of controller read bursts serviced by the write queue
system.mem_ctrl.mergedWrBursts                      2                       # Number of controller write bursts merged with an existing one
system.mem_ctrl.neitherReadNorWriteReqs             0                       # Number of requests that are neither read nor write
system.mem_ctrl.avgRdQLen                        1.00                       # Average read queue length when enqueuing
system.mem_ctrl.avgWrQLen                       21.26                       # Average write queue length when enqueuing
system.mem_ctrl.numRdRetry                          0                       # Number of times read queue was full causing retry
system.mem_ctrl.numWrRetry                          0                       # Number of times write queue was full causing retry
system.mem_ctrl.readPktSize::0                      0                       # Read request sizes (log2)
system.mem_ctrl.readPktSize::1                      0                       # Read request sizes (log2)
system.mem_ctrl.readPktSize::2                      0                       # Read request sizes (log2)
system.mem_ctrl.readPktSize::3                      0                       # Read request sizes (log2)
system.mem_ctrl.readPktSize::4                      0                       # Read request sizes (log2)
system.mem_ctrl.readPktSize::5                      0                       # Read request sizes (log2)
system.mem_ctrl.readPktSize::6                 200950                       # Read request sizes (log2)
system.mem_ctrl.writePktSize::0                     0                       # Write request sizes (log2)
system.mem_ctrl.writePktSize::1                     0                       # Write request sizes (log2)
system.mem_ctrl.writePktSize::2                     0                       # Write request sizes (log2)
system.mem_ctrl.writePktSize::3                     0                       # Write request sizes (log2)
system.mem_ctrl.writePktSize::4                     0                       # Write request sizes (log2)
system.mem_ctrl.writePktSize::5                     0                       # Write request sizes (log2)
system.mem_ctrl.writePktSize::6                 61153                       # Write request sizes (log2)
system.mem_ctrl.rdQLenPdf::0                   200714                       # What read queue length does an incoming req see
system.mem_ctrl.rdQLenPdf::1                        1                       # What read queue length does an incoming req see
system.mem_ctrl.rdQLenPdf::2                        0                       # What read queue length does an incoming req see
system.mem_ctrl.rdQLenPdf::3                        0                       # What read queue length does an incoming req see
system.mem_ctrl.rdQLenPdf::4                        0                       # What read queue length does an incoming req see
system.mem_ctrl.rdQLenPdf::5                        0                       # What read queue length does an incoming req see
system.mem_ctrl.rdQLenPdf::6                        0                       # What read queue length does an incoming req see
system.mem_ctrl.rdQLenPdf::7                        0                       # What read queue length does an incoming req see
system.mem_ctrl.rdQLenPdf::8                        0                       # What read queue length does an incoming req see
system.mem_ctrl.rdQLenPdf::9                        0                       # What read queue length does an incoming req see
system.mem_ctrl.rdQLenPdf::10                       0                       # What read queue length does an incoming req see
system.mem_ctrl.rdQLenPdf::11                       0                       # What read queue length does an incoming req see
system.mem_ctrl.rdQLenPdf::12                       0                       # What read queue length does an incoming req see
system.mem_ctrl.rdQLenPdf::13                       0                       # What read queue length does an incoming req see
system.mem_ctrl.rdQLenPdf::14                       0                       # What read queue length does an incoming req see
system.mem_ctrl.rdQLenPdf::15                       0                       # What read queue length does an incoming req see
system.mem_ctrl.rdQLenPdf::16                       0                       # What read queue length does an incoming req see
system.mem_ctrl.rdQLenPdf::17                       0                       # What read queue length does an incoming req see
system.mem_ctrl.rdQLenPdf::18                       0                       # What read queue length does an incoming req see
system.mem_ctrl.rdQLenPdf::19                       0                       # What read queue length does an incoming req see
system.mem_ctrl.rdQLenPdf::20                       0                       # What read queue length does an incoming req see
system.mem_ctrl.rdQLenPdf::21                       0                       # What read queue length does an incoming req see
system.mem_ctrl.rdQLenPdf::22                       0                       # What read queue length does an incoming req see
system.mem_ctrl.rdQLenPdf::23                       0                       # What read queue length does an incoming req see
system.mem_ctrl.rdQLenPdf::24                       0                       # What read queue length does an incoming req see
system.mem_ctrl.rdQLenPdf::25                       0                       # What read queue length does an incoming req see
system.mem_ctrl.rdQLenPdf::26                       0                       # What read queue length does an incoming req see
system.mem_ctrl.rdQLenPdf::27                       0                       # What read queue length does an incoming req see
system.mem_ctrl.rdQLenPdf::28                       0                       # What read queue length does an incoming req see
system.mem_ctrl.rdQLenPdf::29                       0                       # What read queue length does an incoming req see
system.mem_ctrl.rdQLenPdf::30                       0                       # What read queue length does an incoming req see
system.mem_ctrl.rdQLenPdf::31                       0                       # What read queue length does an incoming req see
system.mem_ctrl.wrQLenPdf::0                        1                       # What write queue length does an incoming req see
system.mem_ctrl.wrQLenPdf::1                        1                       # What write queue length does an incoming req see
system.mem_ctrl.wrQLenPdf::2                        1                       # What write queue length does an incoming req see
system.mem_ctrl.wrQLenPdf::3                        1                       # What write queue length does an incoming req see
system.mem_ctrl.wrQLenPdf::4                        1                       # What write queue length does an incoming req see
system.mem_ctrl.wrQLenPdf::5                        1                       # What write queue length does an incoming req see
system.mem_ctrl.wrQLenPdf::6                        1                       # What write queue length does an incoming req see
system.mem_ctrl.wrQLenPdf::7                        1                       # What write queue length does an incoming req see
system.mem_ctrl.wrQLenPdf::8                        1                       # What write queue length does an incoming req see
system.mem_ctrl.wrQLenPdf::9                        1                       # What write queue length does an incoming req see
system.mem_ctrl.wrQLenPdf::10                       1                       # What write queue length does an incoming req see
system.mem_ctrl.wrQLenPdf::11                       1                       # What write queue length does an incoming req see
system.mem_ctrl.wrQLenPdf::12                       1                       # What write queue length does an incoming req see
system.mem_ctrl.wrQLenPdf::13                       1                       # What write queue length does an incoming req see
system.mem_ctrl.wrQLenPdf::14                       1                       # What write queue length does an incoming req see
system.mem_ctrl.wrQLenPdf::15                    3178                       # What write queue length does an incoming req see
system.mem_ctrl.wrQLenPdf::16                    3201                       # What write queue length does an incoming req see
system.mem_ctrl.wrQLenPdf::17                    3404                       # What write queue length does an incoming req see
system.mem_ctrl.wrQLenPdf::18                    3428                       # What write queue length does an incoming req see
system.mem_ctrl.wrQLenPdf::19                    3465                       # What write queue length does an incoming req see
system.mem_ctrl.wrQLenPdf::20                    3430                       # What write queue length does an incoming req see
system.mem_ctrl.wrQLenPdf::21                    3467                       # What write queue length does an incoming req see
system.mem_ctrl.wrQLenPdf::22                    3417                       # What write queue length does an incoming req see
system.mem_ctrl.wrQLenPdf::23                    3416                       # What write queue length does an incoming req see
system.mem_ctrl.wrQLenPdf::24                    3415                       # What write queue length does an incoming req see
system.mem_ctrl.wrQLenPdf::25                    3416                       # What write queue length does an incoming req see
system.mem_ctrl.wrQLenPdf::26                    3414                       # What write queue length does an incoming req see
system.mem_ctrl.wrQLenPdf::27                    3414                       # What write queue length does an incoming req see
system.mem_ctrl.wrQLenPdf::28                    3414                       # What write queue length does an incoming req see
system.mem_ctrl.wrQLenPdf::29                    3414                       # What write queue length does an incoming req see
system.mem_ctrl.wrQLenPdf::30                    3414                       # What write queue length does an incoming req see
system.mem_ctrl.wrQLenPdf::31                    3414                       # What write queue length does an incoming req see
system.mem_ctrl.wrQLenPdf::32                    3414                       # What write queue length does an incoming req see
system.mem_ctrl.wrQLenPdf::33                       1                       # What write queue length does an incoming req see
system.mem_ctrl.wrQLenPdf::34                       0                       # What write queue length does an incoming req see
system.mem_ctrl.wrQLenPdf::35                       0                       # What write queue length does an incoming req see
system.mem_ctrl.wrQLenPdf::36                       0                       # What write queue length does an incoming req see
system.mem_ctrl.wrQLenPdf::37                       0                       # What write queue length does an incoming req see
system.mem_ctrl.wrQLenPdf::38                       0                       # What write queue length does an incoming req see
system.mem_ctrl.wrQLenPdf::39                       0                       # What write queue length does an incoming req see
system.mem_ctrl.wrQLenPdf::40                       0                       # What write queue length does an incoming req see
system.mem_ctrl.wrQLenPdf::41                       0                       # What write queue length does an incoming req see
system.mem_ctrl.wrQLenPdf::42                       0                       # What write queue length does an incoming req see
system.mem_ctrl.wrQLenPdf::43                       0                       # What write queue length does an incoming req see
system.mem_ctrl.wrQLenPdf::44                       0                       # What write queue length does an incoming req see
system.mem_ctrl.wrQLenPdf::45                       0                       # What write queue length does an incoming req see
system.mem_ctrl.wrQLenPdf::46                       0                       # What write queue length does an incoming req see
system.mem_ctrl.wrQLenPdf::47                       0                       # What write queue length does an incoming req see
system.mem_ctrl.wrQLenPdf::48                       0                       # What write queue length does an incoming req see
system.mem_ctrl.wrQLenPdf::49                       0                       # What write queue length does an incoming req see
system.mem_ctrl.wrQLenPdf::50                       0                       # What write queue length does an incoming req see
system.mem_ctrl.wrQLenPdf::51                       0                       # What write queue length does an incoming req see
system.mem_ctrl.wrQLenPdf::52                       0                       # What write queue length does an incoming req see
system.mem_ctrl.wrQLenPdf::53                       0                       # What write queue length does an incoming req see
system.mem_ctrl.wrQLenPdf::54                       0                       # What write queue length does an incoming req see
system.mem_ctrl.wrQLenPdf::55                       0                       # What write queue length does an incoming req see
system.mem_ctrl.wrQLenPdf::56                       0                       # What write queue length does an incoming req see
system.mem_ctrl.wrQLenPdf::57                       0                       # What write queue length does an incoming req see
system.mem_ctrl.wrQLenPdf::58                       0                       # What write queue length does an incoming req see
system.mem_ctrl.wrQLenPdf::59                       0                       # What write queue length does an incoming req see
system.mem_ctrl.wrQLenPdf::60                       0                       # What write queue length does an incoming req see
system.mem_ctrl.wrQLenPdf::61                       0                       # What write queue length does an incoming req see
system.mem_ctrl.wrQLenPdf::62                       0                       # What write queue length does an incoming req see
system.mem_ctrl.wrQLenPdf::63                       0                       # What write queue length does an incoming req see
system.mem_ctrl.rdPerTurnAround::samples         3414                       # Reads before turning the bus around for writes
system.mem_ctrl.rdPerTurnAround::mean       58.179262                       # Reads before turning the bus around for writes
system.mem_ctrl.rdPerTurnAround::gmean      37.475961                       # Reads before turning the bus around for writes
system.mem_ctrl.rdPerTurnAround::stdev     217.526618                       # Reads before turning the bus around for writes
system.mem_ctrl.rdPerTurnAround::0-127           3318     97.19%     97.19% # Reads before turning the bus around for writes
system.mem_ctrl.rdPerTurnAround::128-255           64      1.87%     99.06% # Reads before turning the bus around for writes
system.mem_ctrl.rdPerTurnAround::256-383            8      0.23%     99.30% # Reads before turning the bus around for writes
system.mem_ctrl.rdPerTurnAround::384-511            1      0.03%     99.33% # Reads before turning the bus around for writes
system.mem_ctrl.rdPerTurnAround::1408-1535            1      0.03%     99.36% # Reads before turning the bus around for writes
system.mem_ctrl.rdPerTurnAround::1536-1663            2      0.06%     99.41% # Reads before turning the bus around for writes
system.mem_ctrl.rdPerTurnAround::1664-1791            1      0.03%     99.44% # Reads before turning the bus around for writes
system.mem_ctrl.rdPerTurnAround::1792-1919            1      0.03%     99.47% # Reads before turning the bus around for writes
system.mem_ctrl.rdPerTurnAround::1920-2047            6      0.18%     99.65% # Reads before turning the bus around for writes
system.mem_ctrl.rdPerTurnAround::2560-2687            1      0.03%     99.68% # Reads before turning the bus around for writes
system.mem_ctrl.rdPerTurnAround::3072-3199            2      0.06%     99.74% # Reads before turning the bus around for writes
system.mem_ctrl.rdPerTurnAround::3200-3327            4      0.12%     99.85% # Reads before turning the bus around for writes
system.mem_ctrl.rdPerTurnAround::3328-3455            4      0.12%     99.97% # Reads before turning the bus around for writes
system.mem_ctrl.rdPerTurnAround::3456-3583            1      0.03%    100.00% # Reads before turning the bus around for writes
system.mem_ctrl.rdPerTurnAround::total           3414                       # Reads before turning the bus around for writes
system.mem_ctrl.wrPerTurnAround::samples         3414                       # Writes before turning the bus around for reads
system.mem_ctrl.wrPerTurnAround::mean       17.906854                       # Writes before turning the bus around for reads
system.mem_ctrl.wrPerTurnAround::gmean      17.898427                       # Writes before turning the bus around for reads
system.mem_ctrl.wrPerTurnAround::stdev       0.534861                       # Writes before turning the bus around for reads
system.mem_ctrl.wrPerTurnAround::16               213      6.24%      6.24% # Writes before turning the bus around for reads
system.mem_ctrl.wrPerTurnAround::17                23      0.67%      6.91% # Writes before turning the bus around for reads
system.mem_ctrl.wrPerTurnAround::18              3047     89.25%     96.16% # Writes before turning the bus around for reads
system.mem_ctrl.wrPerTurnAround::19               131      3.84%    100.00% # Writes before turning the bus around for reads
system.mem_ctrl.wrPerTurnAround::total           3414                       # Writes before turning the bus around for reads
[...]
system.mem_ctrl.requestorReadRate::.cpu.data 98610208.276241451502                       # Per-requestor bytes read from memory rate (Bytes/sec)
system.mem_ctrl.requestorWriteRate::.writebacks 30159674.975284386426                       # Per-requestor bytes write to memory rate (Bytes/sec)
system.mem_ctrl.requestorReadAccesses::.cpu.inst          831                       # Per-requestor read serviced memory accesses
system.mem_ctrl.requestorReadAccesses::.cpu.data       200119                       # Per-requestor read serviced memory accesses
system.mem_ctrl.requestorWriteAccesses::.writebacks        61153                       # Per-requestor write serviced memory accesses
system.mem_ctrl.requestorReadTotalLat::.cpu.inst     22899500                       # Per-requestor read total memory access latency
system.mem_ctrl.requestorReadTotalLat::.cpu.data   6092274000                       # Per-requestor read total memory access latency
system.mem_ctrl.requestorWriteTotalLat::.writebacks 2668874803000                       # Per-requestor write total memory access latency
system.mem_ctrl.requestorReadAvgLat::.cpu.inst     27556.56                       # Per-requestor read average memory access latency
system.mem_ctrl.requestorReadAvgLat::.cpu.data     30443.26                       # Per-requestor read average memory access latency
system.mem_ctrl.requestorWriteAvgLat::.writebacks  43642581.77                       # Per-requestor write average memory access latency
system.mem_ctrl.dram.bytes_read::.cpu.inst        53184                       # Number of bytes read from this memory
system.mem_ctrl.dram.bytes_read::.cpu.data     12807616                       # Number of bytes read from this memory
system.mem_ctrl.dram.bytes_read::total       12860800                       # Number of bytes read from this memory
system.mem_ctrl.dram.bytes_inst_read::.cpu.inst        53184                       # Number of instructions bytes read from this memory
system.mem_ctrl.dram.bytes_inst_read::total        53184                       # Number of instructions bytes read from this memory
system.mem_ctrl.dram.bytes_written::.writebacks      3913792                       # Number of bytes written to this memory
system.mem_ctrl.dram.bytes_written::total      3913792                       # Number of bytes written to this memory
system.mem_ctrl.dram.num_reads::.cpu.inst          831                       # Number of read requests responded to by this memory
system.mem_ctrl.dram.num_reads::.cpu.data       200119                       # Number of read requests responded to by this memory
system.mem_ctrl.dram.num_reads::total          200950                       # Number of read requests responded to by this memory
system.mem_ctrl.dram.num_writes::.writebacks        61153                       # Number of write requests responded to by this memory
system.mem_ctrl.dram.num_writes::total          61153                       # Number of write requests responded to by this memory
system.mem_ctrl.dram.bw_read::.cpu.inst        409963                       # Total read bandwidth from this memory (bytes/s)
system.mem_ctrl.dram.bw_read::.cpu.data      98726143                       # Total read bandwidth from this memory (bytes/s)
system.mem_ctrl.dram.bw_read::total          99136106                       # Total read bandwidth from this memory (bytes/s)
system.mem_ctrl.dram.bw_inst_read::.cpu.inst       409963                       # Instruction read bandwidth from this memory (bytes/s)
system.mem_ctrl.dram.bw_inst_read::total       409963                       # Instruction read bandwidth from this memory (bytes/s)
system.mem_ctrl.dram.bw_write::.writebacks     30169048                       # Write bandwidth from this memory (bytes/s)
system.mem_ctrl.dram.bw_write::total         30169048                       # Write bandwidth from this memory (bytes/s)
system.mem_ctrl.dram.bw_total::.writebacks     30169048                       # Total bandwidth to/from this memory (bytes/s)
system.mem_ctrl.dram.bw_total::.cpu.inst       409963                       # Total bandwidth to/from this memory (bytes/s)
system.mem_ctrl.dram.bw_total::.cpu.data     98726143                       # Total bandwidth to/from this memory (bytes/s)
system.mem_ctrl.dram.bw_total::total        129305154                       # Total bandwidth to/from this memory (bytes/s)
system.mem_ctrl.dram.readBursts                200715                       # Number of DRAM read bursts
system.mem_ctrl.dram.writeBursts                61134                       # Number of DRAM write bursts
system.mem_ctrl.dram.perBankRdBursts::0         12763                       # Per bank write bursts
system.mem_ctrl.dram.perBankRdBursts::1         13264                       # Per bank write bursts
system.mem_ctrl.dram.perBankRdBursts::2         14698                       # Per bank write bursts
system.mem_ctrl.dram.perBankRdBursts::3         12609                       # Per bank write bursts
system.mem_ctrl.dram.perBankRdBursts::4         12109                       # Per bank write bursts
system.mem_ctrl.dram.perBankRdBursts::5         12175                       # Per bank write bursts
system.mem_ctrl.dram.perBankRdBursts::6         12183                       # Per bank write bursts
system.mem_ctrl.dram.perBankRdBursts::7         12122                       # Per bank write bursts
system.mem_ctrl.dram.perBankRdBursts::8         12191                       # Per bank write bursts
system.mem_ctrl.dram.perBankRdBursts::9         12263                       # Per bank write bursts
system.mem_ctrl.dram.perBankRdBursts::10        12225                       # Per bank write bursts
system.mem_ctrl.dram.perBankRdBursts::11        12355                       # Per bank write bursts
system.mem_ctrl.dram.perBankRdBursts::12        12426                       # Per bank write bursts
system.mem_ctrl.dram.perBankRdBursts::13        12359                       # Per bank write bursts
system.mem_ctrl.dram.perBankRdBursts::14        12523                       # Per bank write bursts
system.mem_ctrl.dram.perBankRdBursts::15        12450                       # Per bank write bursts
system.mem_ctrl.dram.perBankWrBursts::0          3731                       # Per bank write bursts
system.mem_ctrl.dram.perBankWrBursts::1          4680                       # Per bank write bursts
system.mem_ctrl.dram.perBankWrBursts::2          6500                       # Per bank write bursts
system.mem_ctrl.dram.perBankWrBursts::3          4097                       # Per bank write bursts
system.mem_ctrl.dram.perBankWrBursts::4          3546                       # Per bank write bursts
system.mem_ctrl.dram.perBankWrBursts::5          3576                       # Per bank write bursts
system.mem_ctrl.dram.perBankWrBursts::6          3490                       # Per bank write bursts
system.mem_ctrl.dram.perBankWrBursts::7          3477                       # Per bank write bursts
system.mem_ctrl.dram.perBankWrBursts::8          3484                       # Per bank write bursts
system.mem_ctrl.dram.perBankWrBursts::9          3497                       # Per bank write bursts
system.mem_ctrl.dram.perBankWrBursts::10         3486                       # Per bank write bursts
system.mem_ctrl.dram.perBankWrBursts::11         3476                       # Per bank write bursts
system.mem_ctrl.dram.perBankWrBursts::12         3495                       # Per bank write bursts
system.mem_ctrl.dram.perBankWrBursts::13         3502                       # Per bank write bursts
system.mem_ctrl.dram.perBankWrBursts::14         3534                       # Per bank write bursts
system.mem_ctrl.dram.perBankWrBursts::15         3563                       # Per bank write bursts
system.mem_ctrl.dram.totQLat               2351767250                       # Total ticks spent queuing
system.mem_ctrl.dram.totBusLat             1003575000                       # Total ticks spent in databus transfers
system.mem_ctrl.dram.totMemAccLat          6115173500                       # Total ticks spent from burst creation until serviced by the DRAM
system.mem_ctrl.dram.avgQLat                 11716.95                       # Average queueing delay per DRAM burst
system.mem_ctrl.dram.avgBusLat                5000.00                       # Average bus latency per DRAM burst
system.mem_ctrl.dram.avgMemAccLat            30466.95                       # Average memory access latency per DRAM burst
system.mem_ctrl.dram.readRowHits               131296                       # Number of row buffer hits during reads
system.mem_ctrl.dram.writeRowHits               40594                       # Number of row buffer hits during writes
system.mem_ctrl.dram.readRowHitRate             65.41                       # Row buffer hit rate for reads
system.mem_ctrl.dram.writeRowHitRate            66.40                       # Row buffer hit rate for writes
system.mem_ctrl.dram.bytesPerActivate::samples        89954                       # Bytes accessed per row activation
system.mem_ctrl.dram.bytesPerActivate::mean   186.289704                       # Bytes accessed per row activation
system.mem_ctrl.dram.bytesPerActivate::gmean   115.755052                       # Bytes accessed per row activation
system.mem_ctrl.dram.bytesPerActivate::stdev   245.533382                       # Bytes accessed per row activation
system.mem_ctrl.dram.bytesPerActivate::0-127        51559     57.32%     57.32% # Bytes accessed per row activation
system.mem_ctrl.dram.bytesPerActivate::128-255        21609     24.02%     81.34% # Bytes accessed per row activation
system.mem_ctrl.dram.bytesPerActivate::256-383         5275      5.86%     87.20% # Bytes accessed per row activation
system.mem_ctrl.dram.bytesPerActivate::384-511         2076      2.31%     89.51% # Bytes accessed per row activation
system.mem_ctrl.dram.bytesPerActivate::512-639         2077      2.31%     91.82% # Bytes accessed per row activation
system.mem_ctrl.dram.bytesPerActivate::640-767         1489      1.66%     93.48% # Bytes accessed per row activation
system.mem_ctrl.dram.bytesPerActivate::768-895          578      0.64%     94.12% # Bytes accessed per row activation
system.mem_ctrl.dram.bytesPerActivate::896-1023          536      0.60%     94.71% # Bytes accessed per row activation
system.mem_ctrl.dram.bytesPerActivate::1024-1151         4755      5.29%    100.00% # Bytes accessed per row activation
system.mem_ctrl.dram.bytesPerActivate::total        89954                       # Bytes accessed per row activation
system.mem_ctrl.dram.bytesRead               12845760                       # Total number of bytes read from DRAM
system.mem_ctrl.dram.bytesWritten             3912576                       # Total number of bytes written to DRAM
system.mem_ctrl.dram.avgRdBW                99.020171                       # Average DRAM read bandwidth in MiBytes/s
system.mem_ctrl.dram.avgWrBW                30.159675                       # Average DRAM write bandwidth in MiBytes/s
system.mem_ctrl.dram.peakBW                  12800.00                       # Theoretical peak bandwidth in MiByte/s
system.mem_ctrl.dram.busUtil                     1.01                       # Data bus utilization in percentage
system.mem_ctrl.dram.busUtilRead                 0.77                       # Data bus utilization in percentage for reads
system.mem_ctrl.dram.busUtilWrite                0.24                       # Data bus utilization in percentage for writes
system.mem_ctrl.dram.pageHitRate                65.64                       # Row buffer hit rate, read and write combined
system.mem_ctrl.dram.power_state.pwrStateResidencyTicks::UNDEFINED 129728719000                       # Cumulative time (in ticks) in various power states
system.mem_ctrl.dram.rank0.actEnergy        329461020                       # Energy for activate commands per rank (pJ)
system.mem_ctrl.dram.rank0.preEnergy        175108890                       # Energy for precharge commands per rank (pJ)
system.mem_ctrl.dram.rank0.readEnergy       727730220                       # Energy for read commands per rank (pJ)
system.mem_ctrl.dram.rank0.writeEnergy      172766340                       # Energy for write commands per rank (pJ)
system.mem_ctrl.dram.rank0.refreshEnergy 10240517040.000002                       # Energy for refresh commands per rank (pJ)
system.mem_ctrl.dram.rank0.actBackEnergy  31375393500                       # Energy for active background per rank (pJ)
system.mem_ctrl.dram.rank0.preBackEnergy  23394444480                       # Energy for precharge background per rank (pJ)
system.mem_ctrl.dram.rank0.actPowerDownEnergy            0                       # Energy for active power-down per rank (pJ)
system.mem_ctrl.dram.rank0.prePowerDownEnergy            0                       # Energy for precharge power-down per rank (pJ)
system.mem_ctrl.dram.rank0.selfRefreshEnergy            0                       # Energy for self refresh per rank (pJ)
system.mem_ctrl.dram.rank0.totalEnergy    66415421490                       # Total energy per rank (pJ)
system.mem_ctrl.dram.rank0.averagePower    511.956196                       # Core power per rank (mW)
system.mem_ctrl.dram.rank0.totalIdleTime            0                       # Total Idle time Per DRAM Rank
system.mem_ctrl.dram.rank0.pwrStateTime::IDLE  60506372500                       # Time in different power states
system.mem_ctrl.dram.rank0.pwrStateTime::REF   4331860000                       # Time in different power states
system.mem_ctrl.dram.rank0.pwrStateTime::SREF            0                       # Time in different power states
system.mem_ctrl.dram.rank0.pwrStateTime::PRE_PDN            0                       # Time in different power states
system.mem_ctrl.dram.rank0.pwrStateTime::ACT  64890486500                       # Time in different power states
system.mem_ctrl.dram.rank0.pwrStateTime::ACT_PDN            0                       # Time in different power states
system.mem_ctrl.dram.rank1.actEnergy        312846240                       # Energy for activate commands per rank (pJ)
system.mem_ctrl.dram.rank1.preEnergy        166266540                       # Energy for precharge commands per rank (pJ)
system.mem_ctrl.dram.rank1.readEnergy       705374880                       # Energy for read commands per rank (pJ)
system.mem_ctrl.dram.rank1.writeEnergy      146353140                       # Energy for write commands per rank (pJ)
system.mem_ctrl.dram.rank1.refreshEnergy 10240517040.000002                       # Energy for refresh commands per rank (pJ)
system.mem_ctrl.dram.rank1.actBackEnergy  30672900990                       # Energy for active background per rank (pJ)
system.mem_ctrl.dram.rank1.preBackEnergy  23986017120                       # Energy for precharge background per rank (pJ)
system.mem_ctrl.dram.rank1.actPowerDownEnergy            0                       # Energy for active power-down per rank (pJ)
system.mem_ctrl.dram.rank1.prePowerDownEnergy            0                       # Energy for precharge power-down per rank (pJ)
system.mem_ctrl.dram.rank1.selfRefreshEnergy            0                       # Energy for self refresh per rank (pJ)
system.mem_ctrl.dram.rank1.totalEnergy    66230275950                       # Total energy per rank (pJ)
system.mem_ctrl.dram.rank1.averagePower    510.529021                       # Core power per rank (mW)
system.mem_ctrl.dram.rank1.totalIdleTime            0                       # Total Idle time Per DRAM Rank
system.mem_ctrl.dram.rank1.pwrStateTime::IDLE  62044815000                       # Time in different power states
system.mem_ctrl.dram.rank1.pwrStateTime::REF   4331860000                       # Time in different power states
system.mem_ctrl.dram.rank1.pwrStateTime::SREF            0                       # Time in different power states
system.mem_ctrl.dram.rank1.pwrStateTime::PRE_PDN            0                       # Time in different power states
system.mem_ctrl.dram.rank1.pwrStateTime::ACT  63352044000                       # Time in different power states
system.mem_ctrl.dram.rank1.pwrStateTime::ACT_PDN            0                       # Time in different power states
system.mem_ctrl.power_state.pwrStateResidencyTicks::UNDEFINED 129728719000                       # Cumulative time (in ticks) in various power states
system.membus.trans_dist::ReadResp             141388                       # Transaction distribution
system.membus.trans_dist::WritebackDirty        61153                       # Transaction distribution
system.membus.trans_dist::CleanEvict           137572                       # Transaction distribution
system.membus.trans_dist::ReadExReq             59562                       # Transaction distribution
system.membus.trans_dist::ReadExResp            59562                       # Transaction distribution
system.membus.trans_dist::ReadSharedReq        141388                       # Transaction distribution
system.membus.pkt_count_system.l2cache.mem_side_port::system.mem_ctrl.port       600625                       # Packet count per connected requestor and responder (bytes)
system.membus.pkt_count_system.l2cache.mem_side_port::total       600625                       # Packet count per connected requestor and responder (bytes)
system.membus.pkt_count::total                 600625                       # Packet count per connected requestor and responder (bytes)
system.membus.pkt_size_system.l2cache.mem_side_port::system.mem_ctrl.port     16774592                       # Cumulative packet size per connected requestor and responder (bytes)
system.membus.pkt_size_system.l2cache.mem_side_port::total     16774592                       # Cumulative packet size per connected requestor and responder (bytes)
system.membus.pkt_size::total                16774592                       # Cumulative packet size per connected requestor and responder (bytes)
system.membus.snoops                                0                       # Total snoops (count)
system.membus.snoopTraffic                          0                       # Total snoop traffic (bytes)
system.membus.snoop_fanout::samples            200950                       # Request fanout histogram
system.membus.snoop_fanout::mean                    0                       # Request fanout histogram
system.membus.snoop_fanout::stdev                   0                       # Request fanout histogram
system.membus.snoop_fanout::underflows              0      0.00%      0.00% # Request fanout histogram
system.membus.snoop_fanout::0                  200950    100.00%    100.00% # Request fanout histogram
system.membus.snoop_fanout::1                       0      0.00%    100.00% # Request fanout histogram
system.membus.snoop_fanout::overflows               0      0.00%    100.00% # Request fanout histogram
system.membus.snoop_fanout::min_value               0                       # Request fanout histogram
system.membus.snoop_fanout::max_value               0                       # Request fanout histogram
system.membus.snoop_fanout::total              200950                       # Request fanout histogram
system.membus.power_state.pwrStateResidencyTicks::UNDEFINED 129728719000                       # Cumulative time (in ticks) in various power states
system.membus.reqLayer2.occupancy           644287000                       # Layer occupancy (ticks)
system.membus.reqLayer2.utilization               0.5                       # Layer utilization (%)
system.membus.respLayer0.occupancy         1075854000                       # Layer occupancy (ticks)
system.membus.respLayer0.utilization              0.8                       # Layer utilization (%)

---------- End Simulation Statistics   ----------
