
---------- Begin Simulation Statistics ----------
final_tick                               2628064431000                       # Number of ticks from beginning of simulation (restored from checkpoints and never reset)
host_inst_rate                                 449417                       # Simulator instruction rate (inst/s)
host_mem_usage                                 663132                       # Number of bytes of host memory used
host_op_rate                                   763945                       # Simulator op (including micro ops) rate (op/s)
host_seconds                                  1280.45                       # Real time elapsed on the host
host_tick_rate                             2052457930                       # Simulator tick rate (ticks/s)
sim_freq                                 1000000000000                       # Frequency of simulated ticks
sim_insts                                   575454669                       # Number of instructions simulated
sim_ops                                     978190952                       # Number of ops (including micro ops) simulated
sim_seconds                                  2.628064                       # Number of seconds simulated
sim_ticks                                2628064431000                       # Number of ticks simulated
system.cpu.Branches                          31851454                       # Number of branches fetched
system.cpu.committedInsts                   575454669                       # Number of instructions committed
system.cpu.committedOps                     978190952                       # Number of ops (including micro ops) committed
system.cpu.idle_fraction                     0.000000                       # Percentage of idle cycles
system.cpu.not_idle_fraction                 1.000000                       # Percentage of non-idle cycles
system.cpu.numCycles                       2628064431                       # number of cpu cycles simulated
system.cpu.numWorkItemsCompleted                    0                       # number of work items this cpu completed
system.cpu.numWorkItemsStarted                      0                       # number of work items this cpu started
system.cpu.num_busy_cycles               2628064430.999000                       # Number of busy cycles
system.cpu.num_cc_register_reads            155141572                       # number of times the CC registers were read
system.cpu.num_cc_register_writes           162654621                       # number of times the CC registers were written
system.cpu.num_conditional_control_insts     29705131                       # number of instructions that are conditional controls
system.cpu.num_fp_alu_accesses              723696043                       # Number of float alu accesses
system.cpu.num_fp_insts                     723696043                       # number of float instructions
system.cpu.num_fp_register_reads           1022020909                       # number of times the floating registers were read
system.cpu.num_fp_register_writes           620017342                       # number of times the floating registers were written
system.cpu.num_func_calls                     1608984                       # number of times a function call or return occured
system.cpu.num_idle_cycles                   0.001000                       # Number of idle cycles
system.cpu.num_int_alu_accesses             539304705                       # Number of integer alu accesses
system.cpu.num_int_insts                    539304705                       # number of integer instructions
system.cpu.num_int_register_reads          1243037649                       # number of times the integer registers were read
system.cpu.num_int_register_writes          221683375                       # number of times the integer registers were written
system.cpu.num_load_insts                   187986149                       # Number of load instructions
system.cpu.num_mem_refs                     292192202                       # number of memory refs
system.cpu.num_store_insts                  104206053                       # Number of store instructions
system.cpu.num_vec_alu_accesses                     0                       # Number of vector alu accesses
system.cpu.num_vec_insts                            0                       # number of vector instructions
system.cpu.num_vec_register_reads                   0                       # number of times the vector registers were read
system.cpu.num_vec_register_writes                  0                       # number of times the vector registers were written
system.cpu.op_class::No_OpClass               1700262      0.17%      0.17% # Class of executed instruction
system.cpu.op_class::IntAlu                 388213720     39.69%     39.86% # Class of executed instruction
system.cpu.op_class::IntMult                  1511480      0.15%     40.02% # Class of executed instruction
system.cpu.op_class::IntDiv                    141316      0.01%     40.03% # Class of executed instruction
system.cpu.op_class::FloatAdd                81130357      8.29%     48.32% # Class of executed instruction
system.cpu.op_class::FloatCmp                       0      0.00%     48.32% # Class of executed instruction
system.cpu.op_class::FloatCvt                       0      0.00%     48.32% # Class of executed instruction
system.cpu.op_class::FloatMult                      0      0.00%     48.32% # Class of executed instruction
system.cpu.op_class::FloatMultAcc                   0      0.00%     48.32% # Class of executed instruction
system.cpu.op_class::FloatDiv                       0      0.00%     48.32% # Class of executed instruction
system.cpu.op_class::FloatMisc                      0      0.00%     48.32% # Class of executed instruction
system.cpu.op_class::FloatSqrt                      0      0.00%     48.32% # Class of executed instruction
system.cpu.op_class::SimdAdd                   491562      0.05%     48.37% # Class of executed instruction
system.cpu.op_class::SimdAddAcc                     0      0.00%     48.37% # Class of executed instruction
system.cpu.op_class::SimdAlu                  2949683      0.30%     48.68% # Class of executed instruction
system.cpu.op_class::SimdCmp                       18      0.00%     48.68% # Class of executed instruction
system.cpu.op_class::SimdCvt                      816      0.00%     48.68% # Class of executed instruction
system.cpu.op_class::SimdMisc                 2637173      0.27%     48.95% # Class of executed instruction
system.cpu.op_class::SimdMult                  245760      0.03%     48.97% # Class of executed instruction
system.cpu.op_class::SimdMultAcc                    0      0.00%     48.97% # Class of executed instruction
system.cpu.op_class::SimdShift                 368643      0.04%     49.01% # Class of executed instruction
system.cpu.op_class::SimdShiftAcc                   0      0.00%     49.01% # Class of executed instruction
system.cpu.op_class::SimdDiv                        0      0.00%     49.01% # Class of executed instruction
system.cpu.op_class::SimdSqrt                       0      0.00%     49.01% # Class of executed instruction
system.cpu.op_class::SimdFloatAdd           119030165     12.17%     61.18% # Class of executed instruction
system.cpu.op_class::SimdFloatAlu                   0      0.00%     61.18% # Class of executed instruction
system.cpu.op_class::SimdFloatCmp                   0      0.00%     61.18% # Class of executed instruction
system.cpu.op_class::SimdFloatCvt             1852644      0.19%     61.37% # Class of executed instruction
system.cpu.op_class::SimdFloatDiv                  70      0.00%     61.37% # Class of executed instruction
system.cpu.op_class::SimdFloatMisc                  0      0.00%     61.37% # Class of executed instruction
system.cpu.op_class::SimdFloatMult           85725170      8.76%     70.13% # Class of executed instruction
system.cpu.op_class::SimdFloatMultAcc               0      0.00%     70.13% # Class of executed instruction
system.cpu.op_class::SimdFloatSqrt                  6      0.00%     70.13% # Class of executed instruction
system.cpu.op_class::SimdReduceAdd                  0      0.00%     70.13% # Class of executed instruction
system.cpu.op_class::SimdReduceAlu                  0      0.00%     70.13% # Class of executed instruction
system.cpu.op_class::SimdReduceCmp                  0      0.00%     70.13% # Class of executed instruction
system.cpu.op_class::SimdFloatReduceAdd             0      0.00%     70.13% # Class of executed instruction
system.cpu.op_class::SimdFloatReduceCmp             0      0.00%     70.13% # Class of executed instruction
system.cpu.op_class::SimdAes                        0      0.00%     70.13% # Class of executed instruction
system.cpu.op_class::SimdAesMix                     0      0.00%     70.13% # Class of executed instruction
system.cpu.op_class::SimdSha1Hash                   0      0.00%     70.13% # Class of executed instruction
system.cpu.op_class::SimdSha1Hash2                  0      0.00%     70.13% # Class of executed instruction
system.cpu.op_class::SimdSha256Hash                 0      0.00%     70.13% # Class of executed instruction
system.cpu.op_class::SimdSha256Hash2                0      0.00%     70.13% # Class of executed instruction
system.cpu.op_class::SimdShaSigma2                  0      0.00%     70.13% # Class of executed instruction
system.cpu.op_class::SimdShaSigma3                  0      0.00%     70.13% # Class of executed instruction
system.cpu.op_class::SimdPredAlu                    0      0.00%     70.13% # Class of executed instruction
system.cpu.op_class::MemRead                  5927088      0.61%     70.74% # Class of executed instruction
system.cpu.op_class::MemWrite                 1856497      0.19%     70.93% # Class of executed instruction
system.cpu.op_class::FloatMemRead           182059061     18.61%     89.54% # Class of executed instruction
system.cpu.op_class::FloatMemWrite          102349556     10.46%    100.00% # Class of executed instruction
system.cpu.op_class::IprAccess                      0      0.00%    100.00% # Class of executed instruction
system.cpu.op_class::InstPrefetch                   0      0.00%    100.00% # Class of executed instruction
system.cpu.op_class::total                  978191047                       # Class of executed instruction
system.cpu.workload.numSyscalls                    72                       # Number of system calls
system.l2bus.snoop_filter.hit_multi_requests            0                       # Number of requests hitting in the snoop filter with multiple (>1) holders of the requested data.
system.l2bus.snoop_filter.hit_multi_snoops            0                       # Number of snoops hitting in the snoop filter with multiple (>1) holders of the requested data.
system.l2bus.snoop_filter.hit_single_requests      7979967                       # Number of requests hitting in the snoop filter with a single holder of the requested data.
system.l2bus.snoop_filter.hit_single_snoops      1093217                       # Number of snoops hitting in the snoop filter with a single holder of the requested data.
system.l2bus.snoop_filter.tot_requests       15961214                       # Total number of requests made to the snoop filter.
system.l2bus.snoop_filter.tot_snoops          1093217                       # Total number of snoops made to the snoop filter.
system.membus.snoop_filter.hit_multi_requests            0                       # Number of requests hitting in the snoop filter with multiple (>1) holders of the requested data.
system.membus.snoop_filter.hit_multi_snoops            0                       # Number of snoops hitting in the snoop filter with multiple (>1) holders of the requested data.
system.membus.snoop_filter.hit_single_requests      3100501                       # Number of requests hitting in the snoop filter with a single holder of the requested data.
system.membus.snoop_filter.hit_single_snoops            0                       # Number of snoops hitting in the snoop filter with a single holder of the requested data.
system.membus.snoop_filter.tot_requests       6203467                       # Total number of requests made to the snoop filter.
system.membus.snoop_filter.tot_snoops               0                       # Total number of snoops made to the snoop filter.
system.clk_domain.clock                          1000                       # Clock period in ticks
system.clk_domain.voltage_domain.voltage            1                       # Voltage in Volts
system.cpu.dcache.demand_hits::.cpu.data    284222134                       # number of demand (read+write) hits
system.cpu.dcache.demand_hits::total        284222134                       # number of demand (read+write) hits
system.cpu.dcache.overall_hits::.cpu.data    284222134                       # number of overall hits
system.cpu.dcache.overall_hits::total       284222134                       # number of overall hits
system.cpu.dcache.demand_misses::.cpu.data      7970134                       # number of demand (read+write) misses
system.cpu.dcache.demand_misses::total        7970134                       # number of demand (read+write) misses
system.cpu.dcache.overall_misses::.cpu.data      7970134                       # number of overall misses
system.cpu.dcache.overall_misses::total       7970134                       # number of overall misses
system.cpu.dcache.demand_miss_latency::.cpu.data 447215505000                       # number of demand (read+write) miss cycles
system.cpu.dcache.demand_miss_latency::total 447215505000                       # number of demand (read+write) miss cycles
system.cpu.dcache.overall_miss_latency::.cpu.data 447215505000                       # number of overall miss cycles
system.cpu.dcache.overall_miss_latency::total 447215505000                       # number of overall miss cycles
system.cpu.dcache.demand_accesses::.cpu.data    292192268                       # number of demand (read+write) accesses
system.cpu.dcache.demand_accesses::total    292192268                       # number of demand (read+write) accesses
system.cpu.dcache.overall_accesses::.cpu.data    292192268                       # number of overall (read+write) accesses
system.cpu.dcache.overall_accesses::total    292192268                       # number of overall (read+write) accesses
system.cpu.dcache.demand_miss_rate::.cpu.data     0.027277                       # miss rate for demand accesses
system.cpu.dcache.demand_miss_rate::total     0.027277                       # miss rate for demand accesses
system.cpu.dcache.overall_miss_rate::.cpu.data     0.027277                       # miss rate for overall accesses
system.cpu.dcache.overall_miss_rate::total     0.027277                       # miss rate for overall accesses
system.cpu.dcache.demand_avg_miss_latency::.cpu.data 56111.416069                       # average overall miss latency
system.cpu.dcache.demand_avg_miss_latency::total 56111.416069                       # average overall miss latency
system.cpu.dcache.overall_avg_miss_latency::.cpu.data 56111.416069                       # average overall miss latency
system.cpu.dcache.overall_avg_miss_latency::total 56111.416069                       # average overall miss latency
system.cpu.dcache.blocked_cycles::no_mshrs            0                       # number of cycles access was blocked
system.cpu.dcache.blocked_cycles::no_targets            0                       # number of cycles access was blocked
system.cpu.dcache.blocked::no_mshrs                 0                       # number of cycles access was blocked
system.cpu.dcache.blocked::no_targets               0                       # number of cycles access was blocked
system.cpu.dcache.avg_blocked_cycles::no_mshrs          nan                       # average number of cycles each access was blocked
system.cpu.dcache.avg_blocked_cycles::no_targets          nan                       # average number of cycles each access was blocked
system.cpu.dcache.writebacks::.writebacks      6535662                       # number of writebacks
system.cpu.dcache.writebacks::total           6535662                       # number of writebacks
system.cpu.dcache.demand_mshr_misses::.cpu.data      7970134                       # number of demand (read+write) MSHR misses
system.cpu.dcache.demand_mshr_misses::total      7970134                       # number of demand (read+write) MSHR misses
system.cpu.dcache.overall_mshr_misses::.cpu.data      7970134                       # number of overall MSHR misses
system.cpu.dcache.overall_mshr_misses::total      7970134                       # number of overall MSHR misses
system.cpu.dcache.demand_mshr_miss_latency::.cpu.data 431275237000                       # number of demand (read+write) MSHR miss cycles
system.cpu.dcache.demand_mshr_miss_latency::total 431275237000                       # number of demand (read+write) MSHR miss cycles
system.cpu.dcache.overall_mshr_miss_latency::.cpu.data 431275237000                       # number of overall MSHR miss cycles
system.cpu.dcache.overall_mshr_miss_latency::total 431275237000                       # number of overall MSHR miss cycles
system.cpu.dcache.demand_mshr_miss_rate::.cpu.data     0.027277                       # mshr miss rate for demand accesses
system.cpu.dcache.demand_mshr_miss_rate::total     0.027277                       # mshr miss rate for demand accesses
system.cpu.dcache.overall_mshr_miss_rate::.cpu.data     0.027277                       # mshr miss rate for overall accesses
system.cpu.dcache.overall_mshr_miss_rate::total     0.027277                       # mshr miss rate for overall accesses
system.cpu.dcache.demand_avg_mshr_miss_latency::.cpu.data 54111.416069                       # average overall mshr miss latency
system.cpu.dcache.demand_avg_mshr_miss_latency::total 54111.416069                       # average overall mshr miss latency
system.cpu.dcache.overall_avg_mshr_miss_latency::.cpu.data 54111.416069                       # average overall mshr miss latency
system.cpu.dcache.overall_avg_mshr_miss_latency::total 54111.416069                       # average overall mshr miss latency
system.cpu.dcache.replacements                7969110                       # number of replacements
system.cpu.dcache.ReadReq_hits::.cpu.data    184112552                       # number of ReadReq hits
system.cpu.dcache.ReadReq_hits::total       184112552                       # number of ReadReq hits
system.cpu.dcache.ReadReq_misses::.cpu.data      3873643                       # number of ReadReq misses
system.cpu.dcache.ReadReq_misses::total       3873643                       # number of ReadReq misses
system.cpu.dcache.ReadReq_miss_latency::.cpu.data 273776718000                       # number of ReadReq miss cycles
system.cpu.dcache.ReadReq_miss_latency::total 273776718000                       # number of ReadReq miss cycles
system.cpu.dcache.ReadReq_accesses::.cpu.data    187986195                       # number of ReadReq accesses(hits+misses)
system.cpu.dcache.ReadReq_accesses::total    187986195                       # number of ReadReq accesses(hits+misses)
system.cpu.dcache.ReadReq_miss_rate::.cpu.data     0.020606                       # miss rate for ReadReq accesses
system.cpu.dcache.ReadReq_miss_rate::total     0.020606                       # miss rate for ReadReq accesses
system.cpu.dcache.ReadReq_avg_miss_latency::.cpu.data 70676.806820                       # average ReadReq miss latency
system.cpu.dcache.ReadReq_avg_miss_latency::total 70676.806820                       # average ReadReq miss latency
system.cpu.dcache.ReadReq_mshr_misses::.cpu.data      3873643                       # number of ReadReq MSHR misses
system.cpu.dcache.ReadReq_mshr_misses::total      3873643                       # number of ReadReq MSHR misses
system.cpu.dcache.ReadReq_mshr_miss_latency::.cpu.data 266029432000                       # number of ReadReq MSHR miss cycles
system.cpu.dcache.ReadReq_mshr_miss_latency::total 266029432000                       # number of ReadReq MSHR miss cycles
system.cpu.dcache.ReadReq_mshr_miss_rate::.cpu.data     0.020606                       # mshr miss rate for ReadReq accesses
system.cpu.dcache.ReadReq_mshr_miss_rate::total     0.020606                       # mshr miss rate for ReadReq accesses
system.cpu.dcache.ReadReq_avg_mshr_miss_latency::.cpu.data 68676.806820                       # average ReadReq mshr miss latency
system.cpu.dcache.ReadReq_avg_mshr_miss_latency::total 68676.806820                       # average ReadReq mshr miss latency
system.cpu.dcache.WriteReq_hits::.cpu.data    100109582                       # number of WriteReq hits
system.cpu.dcache.WriteReq_hits::total      100109582                       # number of WriteReq hits
system.cpu.dcache.WriteReq_misses::.cpu.data      4096491                       # number of WriteReq misses
system.cpu.dcache.WriteReq_misses::total      4096491                       # number of WriteReq misses
system.cpu.dcache.WriteReq_miss_latency::.cpu.data 173438787000                       # number of WriteReq miss cycles
system.cpu.dcache.WriteReq_miss_latency::total 173438787000                       # number of WriteReq miss cycles
system.cpu.dcache.WriteReq_accesses::.cpu.data    104206073                       # number of WriteReq accesses(hits+misses)
system.cpu.dcache.WriteReq_accesses::total    104206073                       # number of WriteReq accesses(hits+misses)
system.cpu.dcache.WriteReq_miss_rate::.cpu.data     0.039311                       # miss rate for WriteReq accesses
system.cpu.dcache.WriteReq_miss_rate::total     0.039311                       # miss rate for WriteReq accesses
system.cpu.dcache.WriteReq_avg_miss_latency::.cpu.data 42338.378627                       # average WriteReq miss latency
system.cpu.dcache.WriteReq_avg_miss_latency::total 42338.378627                       # average WriteReq miss latency
system.cpu.dcache.WriteReq_mshr_misses::.cpu.data      4096491                       # number of WriteReq MSHR misses
system.cpu.dcache.WriteReq_mshr_misses::total      4096491                       # number of WriteReq MSHR misses
system.cpu.dcache.WriteReq_mshr_miss_latency::.cpu.data 165245805000                       # number of WriteReq MSHR miss cycles
system.cpu.dcache.WriteReq_mshr_miss_latency::total 165245805000                       # number of WriteReq MSHR miss cycles
system.cpu.dcache.WriteReq_mshr_miss_rate::.cpu.data     0.039311                       # mshr miss rate for WriteReq accesses
system.cpu.dcache.WriteReq_mshr_miss_rate::total     0.039311                       # mshr miss rate for WriteReq accesses
system.cpu.dcache.WriteReq_avg_mshr_miss_latency::.cpu.data 40338.378627                       # average WriteReq mshr miss latency
system.cpu.dcache.WriteReq_avg_mshr_miss_latency::total 40338.378627                       # average WriteReq mshr miss latency
system.cpu.dcache.power_state.pwrStateResidencyTicks::UNDEFINED 2628064431000                       # Cumulative time (in ticks) in various power states
system.cpu.dcache.tags.tagsinuse          1023.902720                       # Cycle average of tags in use
system.cpu.dcache.tags.total_refs           292192268                       # Total number of references to valid blocks.
system.cpu.dcache.tags.sampled_refs           7970134                       # Sample count of references to valid blocks.
system.cpu.dcache.tags.avg_refs             36.660898                       # Average number of references to valid blocks.
system.cpu.dcache.tags.warmup_cycle            224000                       # Cycle when the warmup percentage was hit.
system.cpu.dcache.tags.occ_blocks::.cpu.data  1023.902720                       # Average occupied blocks per requestor
system.cpu.dcache.tags.occ_percent::.cpu.data     0.999905                       # Average percentage of cache occupancy
system.cpu.dcache.tags.occ_percent::total     0.999905                       # Average percentage of cache occupancy
system.cpu.dcache.tags.occ_task_id_blocks::1024         1024                       # Occupied blocks per task id
system.cpu.dcache.tags.age_task_id_blocks_1024::0           25                       # Occupied blocks per task id
system.cpu.dcache.tags.age_task_id_blocks_1024::1           96                       # Occupied blocks per task id
system.cpu.dcache.tags.age_task_id_blocks_1024::2          864                       # Occupied blocks per task id
system.cpu.dcache.tags.age_task_id_blocks_1024::3           28                       # Occupied blocks per task id
system.cpu.dcache.tags.age_task_id_blocks_1024::4           11                       # Occupied blocks per task id
system.cpu.dcache.tags.occ_task_id_percent::1024            1                       # Percentage of cache occupancy per task id
system.cpu.dcache.tags.tag_accesses         592354670                       # Number of tag accesses
system.cpu.dcache.tags.data_accesses        592354670                       # Number of data accesses
system.cpu.dcache.tags.power_state.pwrStateResidencyTicks::UNDEFINED 2628064431000                       # Cumulative time (in ticks) in various power states
system.cpu.dtb.rdAccesses                   187986196                       # TLB accesses on read requests
system.cpu.dtb.wrAccesses                   104206095                       # TLB accesses on write requests
system.cpu.dtb.rdMisses                        108733                       # TLB misses on read requests
system.cpu.dtb.wrMisses                         99901                       # TLB misses on write requests
system.cpu.dtb.walker.power_state.pwrStateResidencyTicks::UNDEFINED 2628064431000                       # Cumulative time (in ticks) in various power states
system.cpu.icache.demand_hits::.cpu.inst    805853277                       # number of demand (read+write) hits
system.cpu.icache.demand_hits::total        805853277                       # number of demand (read+write) hits
system.cpu.icache.overall_hits::.cpu.inst    805853277                       # number of overall hits
system.cpu.icache.overall_hits::total       805853277                       # number of overall hits
system.cpu.icache.demand_misses::.cpu.inst        11113                       # number of demand (read+write) misses
system.cpu.icache.demand_misses::total          11113                       # number of demand (read+write) misses
system.cpu.icache.overall_misses::.cpu.inst        11113                       # number of overall misses
system.cpu.icache.overall_misses::total         11113                       # number of overall misses
system.cpu.icache.demand_miss_latency::.cpu.inst    698770000                       # number of demand (read+write) miss cycles
system.cpu.icache.demand_miss_latency::total    698770000                       # number of demand (read+write) miss cycles
system.cpu.icache.overall_miss_latency::.cpu.inst    698770000                       # number of overall miss cycles
system.cpu.icache.overall_miss_latency::total    698770000                       # number of overall miss cycles
system.cpu.icache.demand_accesses::.cpu.inst    805864390                       # number of demand (read+write) accesses
system.cpu.icache.demand_accesses::total    805864390                       # number of demand (read+write) accesses
system.cpu.icache.overall_accesses::.cpu.inst    805864390                       # number of overall (read+write) accesses
system.cpu.icache.overall_accesses::total    805864390                       # number of overall (read+write) accesses
system.cpu.icache.demand_miss_rate::.cpu.inst     0.000014                       # miss rate for demand accesses
system.cpu.icache.demand_miss_rate::total     0.000014                       # miss rate for demand accesses
system.cpu.icache.overall_miss_rate::.cpu.inst     0.000014                       # miss rate for overall accesses
system.cpu.icache.overall_miss_rate::total     0.000014                       # miss rate for overall accesses
system.cpu.icache.demand_avg_miss_latency::.cpu.inst 62878.610636                       # average overall miss latency
system.cpu.icache.demand_avg_miss_latency::total 62878.610636                       # average overall miss latency
system.cpu.icache.overall_avg_miss_latency::.cpu.inst 62878.610636                       # average overall miss latency
system.cpu.icache.overall_avg_miss_latency::total 62878.610636                       # average overall miss latency
system.cpu.icache.blocked_cycles::no_mshrs            0                       # number of cycles access was blocked
system.cpu.icache.blocked_cycles::no_targets            0                       # number of cycles access was blocked
system.cpu.icache.blocked::no_mshrs                 0                       # number of cycles access was blocked
system.cpu.icache.blocked::no_targets               0                       # number of cycles access was blocked
system.cpu.icache.avg_blocked_cycles::no_mshrs          nan                       # average number of cycles each access was blocked
system.cpu.icache.avg_blocked_cycles::no_targets          nan                       # average number of cycles each access was blocked
system.cpu.icache.demand_mshr_misses::.cpu.inst        11113                       # number of demand (read+write) MSHR misses
system.cpu.icache.demand_mshr_misses::total        11113                       # number of demand (read+write) MSHR misses
system.cpu.icache.overall_mshr_misses::.cpu.inst        11113                       # number of overall MSHR misses
system.cpu.icache.overall_mshr_misses::total        11113                       # number of overall MSHR misses
system.cpu.icache.demand_mshr_miss_latency::.cpu.inst    676544000                       # number of demand (read+write) MSHR miss cycles
system.cpu.icache.demand_mshr_miss_latency::total    676544000                       # number of demand (read+write) MSHR miss cycles
system.cpu.icache.overall_mshr_miss_latency::.cpu.inst    676544000                       # number of overall MSHR miss cycles
system.cpu.icache.overall_mshr_miss_latency::total    676544000                       # number of overall MSHR miss cycles
system.cpu.icache.demand_mshr_miss_rate::.cpu.inst     0.000014                       # mshr miss rate for demand accesses
system.cpu.icache.demand_mshr_miss_rate::total     0.000014                       # mshr miss rate for demand accesses
system.cpu.icache.overall_mshr_miss_rate::.cpu.inst     0.000014                       # mshr miss rate for overall accesses
system.cpu.icache.overall_mshr_miss_rate::total     0.000014                       # mshr miss rate for overall accesses
system.cpu.icache.demand_avg_mshr_miss_latency::.cpu.inst 60878.610636                       # average overall mshr miss latency
system.cpu.icache.demand_avg_mshr_miss_latency::total 60878.610636                       # average overall mshr miss latency
system.cpu.icache.overall_avg_mshr_miss_latency::.cpu.inst 60878.610636                       # average overall mshr miss latency
system.cpu.icache.overall_avg_mshr_miss_latency::total 60878.610636                       # average overall mshr miss latency
system.cpu.icache.replacements                  10857                       # number of replacements
system.cpu.icache.ReadReq_hits::.cpu.inst    805853277                       # number of ReadReq hits
system.cpu.icache.ReadReq_hits::total       805853277                       # number of ReadReq hits
system.cpu.icache.ReadReq_misses::.cpu.inst        11113                       # number of ReadReq misses
system.cpu.icache.ReadReq_misses::total         11113                       # number of ReadReq misses
system.cpu.icache.ReadReq_miss_latency::.cpu.inst    698770000                       # number of ReadReq miss cycles
system.cpu.icache.ReadReq_miss_latency::total    698770000                       # number of ReadReq miss cycles
system.cpu.icache.ReadReq_accesses::.cpu.inst    805864390                       # number of ReadReq accesses(hits+misses)
system.cpu.icache.ReadReq_accesses::total    805864390                       # number of ReadReq accesses(hits+misses)
system.cpu.icache.ReadReq_miss_rate::.cpu.inst     0.000014                       # miss rate for ReadReq accesses
system.cpu.icache.ReadReq_miss_rate::total     0.000014                       # miss rate for ReadReq accesses
system.cpu.icache.ReadReq_avg_miss_latency::.cpu.inst 62878.610636                       # average ReadReq miss latency
system.cpu.icache.ReadReq_avg_miss_latency::total 62878.610636                       # average ReadReq miss latency
system.cpu.icache.ReadReq_mshr_misses::.cpu.inst        11113                       # number of ReadReq MSHR misses
system.cpu.icache.ReadReq_mshr_misses::total        11113                       # number of ReadReq MSHR misses
system.cpu.icache.ReadReq_mshr_miss_latency::.cpu.inst    676544000                       # number of ReadReq MSHR miss cycles
system.cpu.icache.ReadReq_mshr_miss_latency::total    676544000                       # number of ReadReq MSHR miss cycles
system.cpu.icache.ReadReq_mshr_miss_rate::.cpu.inst     0.000014                       # mshr miss rate for ReadReq accesses
system.cpu.icache.ReadReq_mshr_miss_rate::total     0.000014                       # mshr miss rate for ReadReq accesses
system.cpu.icache.ReadReq_avg_mshr_miss_latency::.cpu.inst 60878.610636                       # average ReadReq mshr miss latency
system.cpu.icache.ReadReq_avg_mshr_miss_latency::total 60878.610636                       # average ReadReq mshr miss latency
system.cpu.icache.power_state.pwrStateResidencyTicks::UNDEFINED 2628064431000                       # Cumulative time (in ticks) in various power states
system.cpu.icache.tags.tagsinuse           255.995168                       # Cycle average of tags in use
system.cpu.icache.tags.total_refs           805864390                       # Total number of references to valid blocks.
system.cpu.icache.tags.sampled_refs             11113                       # Sample count of references to valid blocks.
system.cpu.icache.tags.avg_refs          72515.467471                       # Average number of references to valid blocks.
system.cpu.icache.tags.warmup_cycle            107000                       # Cycle when the warmup percentage was hit.
system.cpu.icache.tags.occ_blocks::.cpu.inst   255.995168                       # Average occupied blocks per requestor
system.cpu.icache.tags.occ_percent::.cpu.inst     0.999981                       # Average percentage of cache occupancy
system.cpu.icache.tags.occ_percent::total     0.999981                       # Average percentage of cache occupancy
system.cpu.icache.tags.occ_task_id_blocks::1024          256                       # Occupied blocks per task id
system.cpu.icache.tags.age_task_id_blocks_1024::0           39                       # Occupied blocks per task id
system.cpu.icache.tags.age_task_id_blocks_1024::1          103                       # Occupied blocks per task id
system.cpu.icache.tags.age_task_id_blocks_1024::2          112                       # Occupied blocks per task id
system.cpu.icache.tags.age_task_id_blocks_1024::4            2                       # Occupied blocks per task id
system.cpu.icache.tags.occ_task_id_percent::1024            1                       # Percentage of cache occupancy per task id
system.cpu.icache.tags.tag_accesses        1611739893                       # Number of tag accesses
system.cpu.icache.tags.data_accesses       1611739893                       # Number of data accesses
system.cpu.icache.tags.power_state.pwrStateResidencyTicks::UNDEFINED 2628064431000                       # Cumulative time (in ticks) in various power states
system.cpu.interrupts.clk_domain.clock          16000                       # Clock period in ticks
system.cpu.itb.rdAccesses                           0                       # TLB accesses on read requests
system.cpu.itb.wrAccesses                   805864390                       # TLB accesses on write requests
system.cpu.itb.rdMisses                             0                       # TLB misses on read requests
system.cpu.itb.wrMisses                           111                       # TLB misses on write requests
system.cpu.itb.walker.power_state.pwrStateResidencyTicks::UNDEFINED 2628064431000                       # Cumulative time (in ticks) in various power states
system.cpu.power_state.pwrStateResidencyTicks::ON 2628064431000                       # Cumulative time (in ticks) in various power states
system.cpu.thread_0.numInsts                        0                       # Number of Instructions committed
system.cpu.thread_0.numOps                          0                       # Number of Ops committed
system.cpu.thread_0.numMemRefs                      0                       # Number of Memory References
system.l2bus.trans_dist::ReadResp             3884756                       # Transaction distribution
system.l2bus.trans_dist::WritebackDirty       9204643                       # Transaction distribution
system.l2bus.trans_dist::CleanEvict           2839901                       # Transaction distribution
system.l2bus.trans_dist::ReadExReq            4096491                       # Transaction distribution
system.l2bus.trans_dist::ReadExResp           4096491                       # Transaction distribution
system.l2bus.trans_dist::ReadSharedReq        3884756                       # Transaction distribution
system.l2bus.pkt_count_system.cpu.icache.mem_side_port::system.l2cache.cpu_side_port        33083                       # Packet count per connected requestor and responder (bytes)
system.l2bus.pkt_count_system.cpu.dcache.mem_side_port::system.l2cache.cpu_side_port     23909378                       # Packet count per connected requestor and responder (bytes)
system.l2bus.pkt_count::total                23942461                       # Packet count per connected requestor and responder (bytes)
system.l2bus.pkt_size_system.cpu.icache.mem_side_port::system.l2cache.cpu_side_port       711232                       # Cumulative packet size per connected requestor and responder (bytes)
system.l2bus.pkt_size_system.cpu.dcache.mem_side_port::system.l2cache.cpu_side_port    928370944                       # Cumulative packet size per connected requestor and responder (bytes)
system.l2bus.pkt_size::total                929082176                       # Cumulative packet size per connected requestor and responder (bytes)
system.l2bus.snoops                           4064577                       # Total snoops (count)
system.l2bus.snoopTraffic                   170814784                       # Total snoop traffic (bytes)
system.l2bus.snoop_fanout::samples           12045824                       # Request fanout histogram
system.l2bus.snoop_fanout::mean              0.090755                       # Request fanout histogram
system.l2bus.snoop_fanout::stdev             0.287260                       # Request fanout histogram
system.l2bus.snoop_fanout::underflows               0      0.00%      0.00% # Request fanout histogram
system.l2bus.snoop_fanout::0                 10952607     90.92%     90.92% # Request fanout histogram
system.l2bus.snoop_fanout::1                  1093217      9.08%    100.00% # Request fanout histogram
system.l2bus.snoop_fanout::2                        0      0.00%    100.00% # Request fanout histogram
system.l2bus.snoop_fanout::overflows                0      0.00%    100.00% # Request fanout histogram
system.l2bus.snoop_fanout::min_value                0                       # Request fanout histogram
system.l2bus.snoop_fanout::max_value                1                       # Request fanout histogram
system.l2bus.snoop_fanout::total             12045824                       # Request fanout histogram
system.l2bus.power_state.pwrStateResidencyTicks::UNDEFINED 2628064431000                       # Cumulative time (in ticks) in various power states
system.l2bus.reqLayer0.occupancy          29032538000                       # Layer occupancy (ticks)
system.l2bus.reqLayer0.utilization                1.1                       # Layer utilization (%)
system.l2bus.respLayer0.occupancy            33339000                       # Layer occupancy (ticks)
system.l2bus.respLayer0.utilization               0.0                       # Layer utilization (%)
system.l2bus.respLayer1.occupancy         23910402000                       # Layer occupancy (ticks)
system.l2bus.respLayer1.utilization               0.9                       # Layer utilization (%)
system.l2cache.demand_hits::.cpu.inst            5959                       # number of demand (read+write) hits
system.l2cache.demand_hits::.cpu.data         4872322                       # number of demand (read+write) hits
system.l2cache.demand_hits::total             4878281                       # number of demand (read+write) hits
system.l2cache.overall_hits::.cpu.inst           5959                       # number of overall hits
system.l2cache.overall_hits::.cpu.data        4872322                       # number of overall hits
system.l2cache.overall_hits::total            4878281                       # number of overall hits
system.l2cache.demand_misses::.cpu.inst          5154                       # number of demand (read+write) misses
system.l2cache.demand_misses::.cpu.data       3097812                       # number of demand (read+write) misses
system.l2cache.demand_misses::total           3102966                       # number of demand (read+write) misses
system.l2cache.overall_misses::.cpu.inst         5154                       # number of overall misses
system.l2cache.overall_misses::.cpu.data      3097812                       # number of overall misses
system.l2cache.overall_misses::total          3102966                       # number of overall misses
system.l2cache.demand_miss_latency::.cpu.inst    517951000                       # number of demand (read+write) miss cycles
system.l2cache.demand_miss_latency::.cpu.data 305027951000                       # number of demand (read+write) miss cycles
system.l2cache.demand_miss_latency::total 305545902000                       # number of demand (read+write) miss cycles
system.l2cache.overall_miss_latency::.cpu.inst    517951000                       # number of overall miss cycles
system.l2cache.overall_miss_latency::.cpu.data 305027951000                       # number of overall miss cycles
system.l2cache.overall_miss_latency::total 305545902000                       # number of overall miss cycles
system.l2cache.demand_accesses::.cpu.inst        11113                       # number of demand (read+write) accesses
system.l2cache.demand_accesses::.cpu.data      7970134                       # number of demand (read+write) accesses
system.l2cache.demand_accesses::total         7981247                       # number of demand (read+write) accesses
system.l2cache.overall_accesses::.cpu.inst        11113                       # number of overall (read+write) accesses
system.l2cache.overall_accesses::.cpu.data      7970134                       # number of overall (read+write) accesses
system.l2cache.overall_accesses::total        7981247                       # number of overall (read+write) accesses
system.l2cache.demand_miss_rate::.cpu.inst     0.463781                       # miss rate for demand accesses
system.l2cache.demand_miss_rate::.cpu.data     0.388678                       # miss rate for demand accesses
system.l2cache.demand_miss_rate::total       0.388782                       # miss rate for demand accesses
system.l2cache.overall_miss_rate::.cpu.inst     0.463781                       # miss rate for overall accesses
system.l2cache.overall_miss_rate::.cpu.data     0.388678                       # miss rate for overall accesses
system.l2cache.overall_miss_rate::total      0.388782                       # miss rate for overall accesses
system.l2cache.demand_avg_miss_latency::.cpu.inst 100494.955374                       # average overall miss latency
system.l2cache.demand_avg_miss_latency::.cpu.data 98465.610889                       # average overall miss latency
system.l2cache.demand_avg_miss_latency::total 98468.981613                       # average overall miss latency
system.l2cache.overall_avg_miss_latency::.cpu.inst 100494.955374                       # average overall miss latency
system.l2cache.overall_avg_miss_latency::.cpu.data 98465.610889                       # average overall miss latency
system.l2cache.overall_avg_miss_latency::total 98468.981613                       # average overall miss latency
system.l2cache.blocked_cycles::no_mshrs             0                       # number of cycles access was blocked
system.l2cache.blocked_cycles::no_targets            0                       # number of cycles access was blocked
system.l2cache.blocked::no_mshrs                    0                       # number of cycles access was blocked
system.l2cache.blocked::no_targets                  0                       # number of cycles access was blocked
system.l2cache.avg_blocked_cycles::no_mshrs          nan                       # average number of cycles each access was blocked
system.l2cache.avg_blocked_cycles::no_targets          nan                       # average number of cycles each access was blocked
system.l2cache.writebacks::.writebacks        2668981                       # number of writebacks
system.l2cache.writebacks::total              2668981                       # number of writebacks
system.l2cache.demand_mshr_misses::.cpu.inst         5154                       # number of demand (read+write) MSHR misses
system.l2cache.demand_mshr_misses::.cpu.data      3097812                       # number of demand (read+write) MSHR misses
system.l2cache.demand_mshr_misses::total      3102966                       # number of demand (read+write) MSHR misses
system.l2cache.overall_mshr_misses::.cpu.inst         5154                       # number of overall MSHR misses
system.l2cache.overall_mshr_misses::.cpu.data      3097812                       # number of overall MSHR misses
system.l2cache.overall_mshr_misses::total      3102966                       # number of overall MSHR misses
system.l2cache.demand_mshr_miss_latency::.cpu.inst    414871000                       # number of demand (read+write) MSHR miss cycles
system.l2cache.demand_mshr_miss_latency::.cpu.data 243071711000                       # number of demand (read+write) MSHR miss cycles
system.l2cache.demand_mshr_miss_latency::total 243486582000                       # number of demand (read+write) MSHR miss cycles
system.l2cache.overall_mshr_miss_latency::.cpu.inst    414871000                       # number of overall MSHR miss cycles
system.l2cache.overall_mshr_miss_latency::.cpu.data 243071711000                       # number of overall MSHR miss cycles
system.l2cache.overall_mshr_miss_latency::total 243486582000                       # number of overall MSHR miss cycles
system.l2cache.demand_mshr_miss_rate::.cpu.inst     0.463781                       # mshr miss rate for demand accesses
system.l2cache.demand_mshr_miss_rate::.cpu.data     0.388678                       # mshr miss rate for demand accesses
system.l2cache.demand_mshr_miss_rate::total     0.388782                       # mshr miss rate for demand accesses
system.l2cache.overall_mshr_miss_rate::.cpu.inst     0.463781                       # mshr miss rate for overall accesses
system.l2cache.overall_mshr_miss_rate::.cpu.data     0.388678                       # mshr miss rate for overall accesses
system.l2cache.overall_mshr_miss_rate::total     0.388782                       # mshr miss rate for overall accesses
system.l2cache.demand_avg_mshr_miss_latency::.cpu.inst 80494.955374                       # average overall mshr miss latency
system.l2cache.demand_avg_mshr_miss_latency::.cpu.data 78465.610889                       # average overall mshr miss latency
system.l2cache.demand_avg_mshr_miss_latency::total 78468.981613                       # average overall mshr miss latency
system.l2cache.overall_avg_mshr_miss_latency::.cpu.inst 80494.955374                       # average overall mshr miss latency
system.l2cache.overall_avg_mshr_miss_latency::.cpu.data 78465.610889                       # average overall mshr miss latency
system.l2cache.overall_avg_mshr_miss_latency::total 78468.981613                       # average overall mshr miss latency
system.l2cache.replacements                   4033679                       # number of replacements
system.l2cache.WritebackDirty_hits::.writebacks      6526059                       # number of WritebackDirty hits
system.l2cache.WritebackDirty_hits::total      6526059                       # number of WritebackDirty hits
system.l2cache.WritebackDirty_misses::.writebacks         9603                       # number of WritebackDirty misses
system.l2cache.WritebackDirty_misses::total         9603                       # number of WritebackDirty misses
system.l2cache.WritebackDirty_accesses::.writebacks      6535662                       # number of WritebackDirty accesses(hits+misses)
system.l2cache.WritebackDirty_accesses::total      6535662                       # number of WritebackDirty accesses(hits+misses)
system.l2cache.WritebackDirty_miss_rate::.writebacks     0.001469                       # miss rate for WritebackDirty accesses
system.l2cache.WritebackDirty_miss_rate::total     0.001469                       # miss rate for WritebackDirty accesses
system.l2cache.WritebackDirty_mshr_misses::.writebacks         9603                       # number of WritebackDirty MSHR misses
system.l2cache.WritebackDirty_mshr_misses::total         9603                       # number of WritebackDirty MSHR misses
system.l2cache.WritebackDirty_mshr_miss_rate::.writebacks     0.001469                       # mshr miss rate for WritebackDirty accesses
system.l2cache.WritebackDirty_mshr_miss_rate::total     0.001469                       # mshr miss rate for WritebackDirty accesses
system.l2cache.CleanEvict_mshr_misses::.writebacks       119538                       # number of CleanEvict MSHR misses
system.l2cache.CleanEvict_mshr_misses::total       119538                       # number of CleanEvict MSHR misses
system.l2cache.CleanEvict_mshr_miss_rate::.writebacks          inf                       # mshr miss rate for CleanEvict accesses
system.l2cache.CleanEvict_mshr_miss_rate::total          inf                       # mshr miss rate for CleanEvict accesses
system.l2cache.ReadExReq_hits::.cpu.data      3228517                       # number of ReadExReq hits
system.l2cache.ReadExReq_hits::total          3228517                       # number of ReadExReq hits
system.l2cache.ReadExReq_misses::.cpu.data       867974                       # number of ReadExReq misses
system.l2cache.ReadExReq_misses::total         867974                       # number of ReadExReq misses
system.l2cache.ReadExReq_miss_latency::.cpu.data  85139362000                       # number of ReadExReq miss cycles
system.l2cache.ReadExReq_miss_latency::total  85139362000                       # number of ReadExReq miss cycles
system.l2cache.ReadExReq_accesses::.cpu.data      4096491                       # number of ReadExReq accesses(hits+misses)
system.l2cache.ReadExReq_accesses::total      4096491                       # number of ReadExReq accesses(hits+misses)
system.l2cache.ReadExReq_miss_rate::.cpu.data     0.211882                       # miss rate for ReadExReq accesses
system.l2cache.ReadExReq_miss_rate::total     0.211882                       # miss rate for ReadExReq accesses
system.l2cache.ReadExReq_avg_miss_latency::.cpu.data 98089.760753                       # average ReadExReq miss latency
system.l2cache.ReadExReq_avg_miss_latency::total 98089.760753                       # average ReadExReq miss latency
system.l2cache.ReadExReq_mshr_misses::.cpu.data       867974                       # number of ReadExReq MSHR misses
system.l2cache.ReadExReq_mshr_misses::total       867974                       # number of ReadExReq MSHR misses
system.l2cache.ReadExReq_mshr_miss_latency::.cpu.data  67779882000                       # number of ReadExReq MSHR miss cycles
system.l2cache.ReadExReq_mshr_miss_latency::total  67779882000                       # number of ReadExReq MSHR miss cycles
system.l2cache.ReadExReq_mshr_miss_rate::.cpu.data     0.211882                       # mshr miss rate for ReadExReq accesses
system.l2cache.ReadExReq_mshr_miss_rate::total     0.211882                       # mshr miss rate for ReadExReq accesses
system.l2cache.ReadExReq_avg_mshr_miss_latency::.cpu.data 78089.760753                       # average ReadExReq mshr miss latency
system.l2cache.ReadExReq_avg_mshr_miss_latency::total 78089.760753                       # average ReadExReq mshr miss latency
system.l2cache.ReadSharedReq_hits::.cpu.inst         5959                       # number of ReadSharedReq hits
system.l2cache.ReadSharedReq_hits::.cpu.data      1643805                       # number of ReadSharedReq hits
system.l2cache.ReadSharedReq_hits::total      1649764                       # number of ReadSharedReq hits
system.l2cache.ReadSharedReq_misses::.cpu.inst         5154                       # number of ReadSharedReq misses
system.l2cache.ReadSharedReq_misses::.cpu.data      2229838                       # number of ReadSharedReq misses
system.l2cache.ReadSharedReq_misses::total      2234992                       # number of ReadSharedReq misses
system.l2cache.ReadSharedReq_miss_latency::.cpu.inst    517951000                       # number of ReadSharedReq miss cycles
system.l2cache.ReadSharedReq_miss_latency::.cpu.data 219888589000                       # number of ReadSharedReq miss cycles
system.l2cache.ReadSharedReq_miss_latency::total 220406540000                       # number of ReadSharedReq miss cycles
system.l2cache.ReadSharedReq_accesses::.cpu.inst        11113                       # number of ReadSharedReq accesses(hits+misses)
system.l2cache.ReadSharedReq_accesses::.cpu.data      3873643                       # number of ReadSharedReq accesses(hits+misses)
system.l2cache.ReadSharedReq_accesses::total      3884756                       # number of ReadSharedReq accesses(hits+misses)
system.l2cache.ReadSharedReq_miss_rate::.cpu.inst     0.463781                       # miss rate for ReadSharedReq accesses
system.l2cache.ReadSharedReq_miss_rate::.cpu.data     0.575644                       # miss rate for ReadSharedReq accesses
system.l2cache.ReadSharedReq_miss_rate::total     0.575324                       # miss rate for ReadSharedReq accesses
system.l2cache.ReadSharedReq_avg_miss_latency::.cpu.inst 100494.955374                       # average ReadSharedReq miss latency
system.l2cache.ReadSharedReq_avg_miss_latency::.cpu.data 98611.912166                       # average ReadSharedReq miss latency
system.l2cache.ReadSharedReq_avg_miss_latency::total 98616.254555                       # average ReadSharedReq miss latency
system.l2cache.ReadSharedReq_mshr_misses::.cpu.inst         5154                       # number of ReadSharedReq MSHR misses
system.l2cache.ReadSharedReq_mshr_misses::.cpu.data      2229838                       # number of ReadSharedReq MSHR misses
system.l2cache.ReadSharedReq_mshr_misses::total      2234992                       # number of ReadSharedReq MSHR misses
system.l2cache.ReadSharedReq_mshr_miss_latency::.cpu.inst    414871000                       # number of ReadSharedReq MSHR miss cycles
system.l2cache.ReadSharedReq_mshr_miss_latency::.cpu.data 175291829000                       # number of ReadSharedReq MSHR miss cycles
system.l2cache.ReadSharedReq_mshr_miss_latency::total 175706700000                       # number of ReadSharedReq MSHR miss cycles
system.l2cache.ReadSharedReq_mshr_miss_rate::.cpu.inst     0.463781                       # mshr miss rate for ReadSharedReq accesses
system.l2cache.ReadSharedReq_mshr_miss_rate::.cpu.data     0.575644                       # mshr miss rate for ReadSharedReq accesses
system.l2cache.ReadSharedReq_mshr_miss_rate::total     0.575324                       # mshr miss rate for ReadSharedReq accesses
system.l2cache.ReadSharedReq_avg_mshr_miss_latency::.cpu.inst 80494.955374                       # average ReadSharedReq mshr miss latency
system.l2cache.ReadSharedReq_avg_mshr_miss_latency::.cpu.data 78611.912166                       # average ReadSharedReq mshr miss latency
system.l2cache.ReadSharedReq_avg_mshr_miss_latency::total 78616.254555                       # average ReadSharedReq mshr miss latency
system.l2cache.power_state.pwrStateResidencyTicks::UNDEFINED 2628064431000                       # Cumulative time (in ticks) in various power states
system.l2cache.replacement_policy.totalBypasses        40501                       # Total number of cache bypasses
system.l2cache.replacement_policy.effectiveBypasses         6529                       # Bypasses that correctly skipped non-reused blocks
system.l2cache.replacement_policy.ineffectiveBypasses         6245                       # Bypasses that incorrectly skipped requested blocks
system.l2cache.replacement_policy.virtualEffectiveBypasses        47169                       # Virtual bypasses correctly predicting non-reused blocks
system.l2cache.replacement_policy.virtualIneffectiveBypasses       101262                       # Virtual bypasses incorrectly predicting requested blocks
system.l2cache.tags.tagsinuse             2047.831726                       # Cycle average of tags in use
system.l2cache.tags.total_refs               15801175                       # Total number of references to valid blocks.
system.l2cache.tags.sampled_refs              4035727                       # Sample count of references to valid blocks.
system.l2cache.tags.avg_refs                 3.915323                       # Average number of references to valid blocks.
system.l2cache.tags.warmup_cycle                86000                       # Cycle when the warmup percentage was hit.
system.l2cache.tags.occ_blocks::.writebacks   331.739833                       # Average occupied blocks per requestor
system.l2cache.tags.occ_blocks::.cpu.inst     0.840979                       # Average occupied blocks per requestor
system.l2cache.tags.occ_blocks::.cpu.data  1715.250915                       # Average occupied blocks per requestor
system.l2cache.tags.occ_percent::.writebacks     0.161982                       # Average percentage of cache occupancy
system.l2cache.tags.occ_percent::.cpu.inst     0.000411                       # Average percentage of cache occupancy
system.l2cache.tags.occ_percent::.cpu.data     0.837525                       # Average percentage of cache occupancy
system.l2cache.tags.occ_percent::total       0.999918                       # Average percentage of cache occupancy
system.l2cache.tags.occ_task_id_blocks::1024         2048                       # Occupied blocks per task id
system.l2cache.tags.age_task_id_blocks_1024::0           76                       # Occupied blocks per task id
system.l2cache.tags.age_task_id_blocks_1024::1          175                       # Occupied blocks per task id
system.l2cache.tags.age_task_id_blocks_1024::2         1698                       # Occupied blocks per task id
system.l2cache.tags.age_task_id_blocks_1024::3           61                       # Occupied blocks per task id
system.l2cache.tags.age_task_id_blocks_1024::4           38                       # Occupied blocks per task id
system.l2cache.tags.occ_task_id_percent::1024            1                       # Percentage of cache occupancy per task id
system.l2cache.tags.tag_accesses            131725439                       # Number of tag accesses
system.l2cache.tags.data_accesses           131725439                       # Number of data accesses
system.l2cache.tags.power_state.pwrStateResidencyTicks::UNDEFINED 2628064431000                       # Cumulative time (in ticks) in various power states
system.mem_ctrl.avgPriority_.writebacks::samples   2678581.00                       # Average QoS priority value for accepted requests
system.mem_ctrl.avgPriority_.cpu.inst::samples      5154.00                       # Average QoS priority value for accepted requests
system.mem_ctrl.avgPriority_.cpu.data::samples   3080905.00                       # Average QoS priority value for accepted requests
system.mem_ctrl.priorityMinLatency       0.000000018750                       # per QoS priority minimum request to response latency (s)
system.mem_ctrl.priorityMaxLatency       0.001405908500                       # per QoS priority maximum request to response latency (s)
system.mem_ctrl.numReadWriteTurnArounds        152676                       # Number of turnarounds from READ to WRITE
system.mem_ctrl.numWriteReadTurnArounds        152676                       # Number of turnarounds from WRITE to READ
system.mem_ctrl.numStayReadState              9462843                       # Number of times bus staying in READ state
system.mem_ctrl.numStayWriteState             2528779                       # Number of times bus staying in WRITE state
system.mem_ctrl.readReqs                      3102966                       # Number of read requests accepted
system.mem_ctrl.writeReqs                     2678584                       # Number of write requests accepted
system.mem_ctrl.readBursts                    3102966                       # Number of controller read bursts, including those serviced by the write queue
system.mem_ctrl.writeBursts                   2678584                       # Number of controller write bursts, including those merged in the write queue
system.mem_ctrl.servicedByWrQ                   16907                       # Number of controller read bursts serviced by the write queue
system.mem_ctrl.mergedWrBursts                      3                       # Number of controller write bursts merged with an existing one
system.mem_ctrl.neitherReadNorWriteReqs             0                       # Number of requests that are neither read nor write
system.mem_ctrl.avgRdQLen                        1.00                       # Average read queue length when enqueuing
system.mem_ctrl.avgWrQLen                       24.58                       # Average write queue length when enqueuing
system.mem_ctrl.numRdRetry                          0                       # Number of times read queue was full causing retry
system.mem_ctrl.numWrRetry                          0                       # Number of times write queue was full causing retry
system.mem_ctrl.readPktSize::0                      0                       # Read request sizes (log2)
system.mem_ctrl.readPktSize::1                      0                       # Read request sizes (log2)
system.mem_ctrl.readPktSize::2                      0                       # Read request sizes (log2)
system.mem_ctrl.readPktSize::3                      0                       # Read request sizes (log2)
system.mem_ctrl.readPktSize::4                      0                       # Read request sizes (log2)
system.mem_ctrl.readPktSize::5                      0                       # Read request sizes (log2)
system.mem_ctrl.readPktSize::6                3102966                       # Read request sizes (log2)
system.mem_ctrl.writePktSize::0                     0                       # Write request sizes (log2)
system.mem_ctrl.writePktSize::1                     0                       # Write request sizes (log2)
system.mem_ctrl.writePktSize::2                     0                       # Write request sizes (log2)
system.mem_ctrl.writePktSize::3                     0                       # Write request sizes (log2)
system.mem_ctrl.writePktSize::4                     0                       # Write request sizes (log2)
system.mem_ctrl.writePktSize::5                     0                       # Write request sizes (log2)
system.mem_ctrl.writePktSize::6               2678584                       # Write request sizes (log2)
system.mem_ctrl.rdQLenPdf::0                  3086056                       # What read queue length does an incoming req see
system.mem_ctrl.rdQLenPdf::1                        3                       # What read queue length does an incoming req see
system.mem_ctrl.rdQLenPdf::2                        0                       # What read queue length does an incoming req see
system.mem_ctrl.rdQLenPdf::3                        0                       # What read queue length does an incoming req see
system.mem_ctrl.rdQLenPdf::4                        0                       # What read queue length does an incoming req see
system.mem_ctrl.rdQLenPdf::5                        0                       # What read queue length does an incoming req see
system.mem_ctrl.rdQLenPdf::6                        0                       # What read queue length does an incoming req see
system.mem_ctrl.rdQLenPdf::7                        0                       # What read queue length does an incoming req see
system.mem_ctrl.rdQLenPdf::8                        0                       # What read queue length does an incoming req see
system.mem_ctrl.rdQLenPdf::9                        0                       # What read queue length does an incoming req see
system.mem_ctrl.rdQLenPdf::10                       0                       # What read queue length does an incoming req see
system.mem_ctrl.rdQLenPdf::11                       0                       # What read queue length does an incoming req see
system.mem_ctrl.rdQLenPdf::12                       0                       # What read queue length does an incoming req see
system.mem_ctrl.rdQLenPdf::13                       0                       # What read queue length does an incoming req see
system.mem_ctrl.rdQLenPdf::14                       0                       # What read queue length does an incoming req see
system.mem_ctrl.rdQLenPdf::15                       0                       # What read queue length does an incoming req see
system.mem_ctrl.rdQLenPdf::16                       0                       # What read queue length does an incoming req see
system.mem_ctrl.rdQLenPdf::17                       0                       # What read queue length does an incoming req see
system.mem_ctrl.rdQLenPdf::18                       0                       # What read queue length does an incoming req see
system.mem_ctrl.rdQLenPdf::19                       0                       # What read queue length does an incoming req see
system.mem_ctrl.rdQLenPdf::20                       0                       # What read queue length does an incoming req see
system.mem_ctrl.rdQLenPdf::21                       0                       # What read queue length does an incoming req see
system.mem_ctrl.rdQLenPdf::22                       0                       # What read queue length does an incoming req see
system.mem_ctrl.rdQLenPdf::23                       0                       # What read queue length does an incoming req see
system.mem_ctrl.rdQLenPdf::24                       0                       # What read queue length does an incoming req see
system.mem_ctrl.rdQLenPdf::25                       0                       # What read queue length does an incoming req see
system.mem_ctrl.rdQLenPdf::26                       0                       # What read queue length does an incoming req see
system.mem_ctrl.rdQLenPdf::27                       0                       # What read queue length does an incoming req see
system.mem_ctrl.rdQLenPdf::28                       0                       # What read queue length does an incoming req see
system.mem_ctrl.rdQLenPdf::29                       0                       # What read queue length does an incoming req see
system.mem_ctrl.rdQLenPdf::30                       0                       # What read queue length does an incoming req see
system.mem_ctrl.rdQLenPdf::31                       0                       # What read queue length does an incoming req see
system.mem_ctrl.wrQLenPdf::0                        1                       # What write queue length does an incoming req see
system.mem_ctrl.wrQLenPdf::1                        1                       # What write queue length does an incoming req see
system.mem_ctrl.wrQLenPdf::2                        1                       # What write queue length does an incoming req see
system.mem_ctrl.wrQLenPdf::3                        1                       # What write queue length does an incoming req see
system.mem_ctrl.wrQLenPdf::4                        1                       # What write queue length does an incoming req see
system.mem_ctrl.wrQLenPdf::5                        1                       # What write queue length does an incoming req see
system.mem_ctrl.wrQLenPdf::6                        1                       # What write queue length does an incoming req see
system.mem_ctrl.wrQLenPdf::7                        1                       # What write queue length does an incoming req see
system.mem_ctrl.wrQLenPdf::8                        1                       # What write queue length does an incoming req see
system.mem_ctrl.wrQLenPdf::9                        1                       # What write queue length does an incoming req see
system.mem_ctrl.wrQLenPdf::10                       1                       # What write queue length does an incoming req see
system.mem_ctrl.wrQLenPdf::11                       1                       # What write queue length does an incoming req see
system.mem_ctrl.wrQLenPdf::12                       1                       # What write queue length does an incoming req see
system.mem_ctrl.wrQLenPdf::13                       1                       # What write queue length does an incoming req see
system.mem_ctrl.wrQLenPdf::14                       1                       # What write queue length does an incoming req see
system.mem_ctrl.wrQLenPdf::15                  113333                       # What write queue length does an incoming req see
system.mem_ctrl.wrQLenPdf::16                  116262                       # What write queue length does an incoming req see
system.mem_ctrl.wrQLenPdf::17                  152147                       # What write queue length does an incoming req see
system.mem_ctrl.wrQLenPdf::18                  154495                       # What write queue length does an incoming req see
system.mem_ctrl.wrQLenPdf::19                  154570                       # What write queue length does an incoming req see
system.mem_ctrl.wrQLenPdf::20                  153210                       # What write queue length does an incoming req see
system.mem_ctrl.wrQLenPdf::21                  154445                       # What write queue length does an incoming req see
system.mem_ctrl.wrQLenPdf::22                  152959                       # What write queue length does an incoming req see
system.mem_ctrl.wrQLenPdf::23                  152816                       # What write queue length does an incoming req see
system.mem_ctrl.wrQLenPdf::24                  152708                       # What write queue length does an incoming req see
system.mem_ctrl.wrQLenPdf::25                  152743                       # What write queue length does an incoming req see
system.mem_ctrl.wrQLenPdf::26                  152688                       # What write queue length does an incoming req see
system.mem_ctrl.wrQLenPdf::27                  152690                       # What write queue length does an incoming req see
system.mem_ctrl.wrQLenPdf::28                  152685                       # What write queue length does an incoming req see
system.mem_ctrl.wrQLenPdf::29                  152683                       # What write queue length does an incoming req see
system.mem_ctrl.wrQLenPdf::30                  152678                       # What write queue length does an incoming req see
system.mem_ctrl.wrQLenPdf::31                  152678                       # What write queue length does an incoming req see
system.mem_ctrl.wrQLenPdf::32                  152677                       # What write queue length does an incoming req see
system.mem_ctrl.wrQLenPdf::33                      93                       # What write queue length does an incoming req see
system.mem_ctrl.wrQLenPdf::34                       6                       # What write queue length does an incoming req see
system.mem_ctrl.wrQLenPdf::35                       0                       # What write queue length does an incoming req see
system.mem_ctrl.wrQLenPdf::36                       0                       # What write queue length does an incoming req see
system.mem_ctrl.wrQLenPdf::37                       0                       # What write queue length does an incoming req see
system.mem_ctrl.wrQLenPdf::38                       0                       # What write queue length does an incoming req see
system.mem_ctrl.wrQLenPdf::39                       0                       # What write queue length does an incoming req see
system.mem_ctrl.wrQLenPdf::40                       0                       # What write queue length does an incoming req see
system.mem_ctrl.wrQLenPdf::41                       0                       # What write queue length does an incoming req see
system.mem_ctrl.wrQLenPdf::42                       0                       # What write queue length does an incoming req see
system.mem_ctrl.wrQLenPdf::43                       0                       # What write queue length does an incoming req see
system.mem_ctrl.wrQLenPdf::44                       0                       # What write queue length does an incoming req see
system.mem_ctrl.wrQLenPdf::45                       0                       # What write queue length does an incoming req see
system.mem_ctrl.wrQLenPdf::46                       0                       # What write queue length does an incoming req see
system.mem_ctrl.wrQLenPdf::47                       0                       # What write queue length does an incoming req see
system.mem_ctrl.wrQLenPdf::48                       0                       # What write queue length does an incoming req see
system.mem_ctrl.wrQLenPdf::49                       0                       # What write queue length does an incoming req see
system.mem_ctrl.wrQLenPdf::50                       0                       # What write queue length does an incoming req see
system.mem_ctrl.wrQLenPdf::51                       0                       # What write queue length does an incoming req see
system.mem_ctrl.wrQLenPdf::52                       0                       # What write queue length does an incoming req see
system.mem_ctrl.wrQLenPdf::53                       0                       # What write queue length does an incoming req see
system.mem_ctrl.wrQLenPdf::54                       0                       # What write queue length does an incoming req see
system.mem_ctrl.wrQLenPdf::55                       0                       # What write queue length does an incoming req see
system.mem_ctrl.wrQLenPdf::56                       0                       # What write queue length does an incoming req see
system.mem_ctrl.wrQLenPdf::57                       0                       # What write queue length does an incoming req see
system.mem_ctrl.wrQLenPdf::58                       0                       # What write queue length does an incoming req see
system.mem_ctrl.wrQLenPdf::59                       0                       # What write queue length does an incoming req see
system.mem_ctrl.wrQLenPdf::60                       0                       # What write queue length does an incoming req see
system.mem_ctrl.wrQLenPdf::61                       0                       # What write queue length does an incoming req see
system.mem_ctrl.wrQLenPdf::62                       0                       # What write queue length does an incoming req see
system.mem_ctrl.wrQLenPdf::63                       0                       # What write queue length does an incoming req see
system.mem_ctrl.rdPerTurnAround::samples       152676                       # Reads before turning the bus around for writes
system.mem_ctrl.rdPerTurnAround::mean       20.213046                       # Reads before turning the bus around for writes
system.mem_ctrl.rdPerTurnAround::stdev      18.703884                       # Reads before turning the bus around for writes
system.mem_ctrl.rdPerTurnAround::0-127         152258     99.73%     99.73% # Reads before turning the bus around for writes
system.mem_ctrl.rdPerTurnAround::128-255          188      0.12%     99.85% # Reads before turning the bus around for writes
system.mem_ctrl.rdPerTurnAround::256-383          127      0.08%     99.93% # Reads before turning the bus around for writes
system.mem_ctrl.rdPerTurnAround::384-511          100      0.07%    100.00% # Reads before turning the bus around for writes
system.mem_ctrl.rdPerTurnAround::512-639            2      0.00%    100.00% # Reads before turning the bus around for writes
system.mem_ctrl.rdPerTurnAround::2816-2943            1      0.00%    100.00% # Reads before turning the bus around for writes
system.mem_ctrl.rdPerTurnAround::total         152676                       # Reads before turning the bus around for writes
system.mem_ctrl.wrPerTurnAround::samples       152676                       # Writes before turning the bus around for reads
system.mem_ctrl.wrPerTurnAround::mean       17.544067                       # Writes before turning the bus around for reads
system.mem_ctrl.wrPerTurnAround::gmean      17.519822                       # Writes before turning the bus around for reads
system.mem_ctrl.wrPerTurnAround::stdev       0.906872                       # Writes before turning the bus around for reads
system.mem_ctrl.wrPerTurnAround::16             37029     24.25%     24.25% # Writes before turning the bus around for reads
system.mem_ctrl.wrPerTurnAround::17              2270      1.49%     25.74% # Writes before turning the bus around for reads
system.mem_ctrl.wrPerTurnAround::18            106746     69.92%     95.66% # Writes before turning the bus around for reads
system.mem_ctrl.wrPerTurnAround::19              6554      4.29%     99.95% # Writes before turning the bus around for reads
system.mem_ctrl.wrPerTurnAround::20                68      0.04%     99.99% # Writes before turning the bus around for reads
system.mem_ctrl.wrPerTurnAround::21                 8      0.01%    100.00% # Writes before turning the bus around for reads
system.mem_ctrl.wrPerTurnAround::22                 1      0.00%    100.00% # Writes before turning the bus around for reads
system.mem_ctrl.wrPerTurnAround::total         152676                       # Writes before turning the bus around for reads
system.mem_ctrl.bytesReadWrQ                  1082048                       # Total number of bytes read from write queue
system.mem_ctrl.bytesReadSys                198589824                       # Total read bytes from the system interface side
system.mem_ctrl.bytesWrittenSys             171429376                       # Total written bytes from the system interface side
[...]
system.mem_ctrl.requestorReadRate::.cpu.data 75027810.457817509770                       # Per-requestor bytes read from memory rate (Bytes/sec)
system.mem_ctrl.requestorWriteRate::.writebacks 65229645.810004115105                       # Per-requestor bytes write to memory rate (Bytes/sec)
system.mem_ctrl.requestorReadAccesses::.cpu.inst         5154                       # Per-requestor read serviced memory accesses
system.mem_ctrl.requestorReadAccesses::.cpu.data      3097812                       # Per-requestor read serviced memory accesses
system.mem_ctrl.requestorWriteAccesses::.writebacks      2678584                       # Per-requestor write serviced memory accesses
system.mem_ctrl.requestorReadTotalLat::.cpu.inst    150256750                       # Per-requestor read total memory access latency
system.mem_ctrl.requestorReadTotalLat::.cpu.data  84301311750                       # Per-requestor read total memory access latency
system.mem_ctrl.requestorWriteTotalLat::.writebacks 61822283319500                       # Per-requestor write total memory access latency
system.mem_ctrl.requestorReadAvgLat::.cpu.inst     29153.42                       # Per-requestor read average memory access latency
system.mem_ctrl.requestorReadAvgLat::.cpu.data     27213.18                       # Per-requestor read average memory access latency
system.mem_ctrl.requestorWriteAvgLat::.writebacks  23080210.78                       # Per-requestor write average memory access latency
system.mem_ctrl.dram.bytes_read::.cpu.inst       329856                       # Number of bytes read from this memory
system.mem_ctrl.dram.bytes_read::.cpu.data    198259968                       # Number of bytes read from this memory
system.mem_ctrl.dram.bytes_read::total      198589824                       # Number of bytes read from this memory
system.mem_ctrl.dram.bytes_inst_read::.cpu.inst       329856                       # Number of instructions bytes read from this memory
system.mem_ctrl.dram.bytes_inst_read::total       329856                       # Number of instructions bytes read from this memory
system.mem_ctrl.dram.bytes_written::.writebacks    171429376                       # Number of bytes written to this memory
system.mem_ctrl.dram.bytes_written::total    171429376                       # Number of bytes written to this memory
system.mem_ctrl.dram.num_reads::.cpu.inst         5154                       # Number of read requests responded to by this memory
system.mem_ctrl.dram.num_reads::.cpu.data      3097812                       # Number of read requests responded to by this memory
system.mem_ctrl.dram.num_reads::total         3102966                       # Number of read requests responded to by this memory
system.mem_ctrl.dram.num_writes::.writebacks      2678584                       # Number of write requests responded to by this memory
system.mem_ctrl.dram.num_writes::total        2678584                       # Number of write requests responded to by this memory
system.mem_ctrl.dram.bw_read::.cpu.inst        125513                       # Total read bandwidth from this memory (bytes/s)
system.mem_ctrl.dram.bw_read::.cpu.data      75439539                       # Total read bandwidth from this memory (bytes/s)
system.mem_ctrl.dram.bw_read::total          75565051                       # Total read bandwidth from this memory (bytes/s)
system.mem_ctrl.dram.bw_inst_read::.cpu.inst       125513                       # Instruction read bandwidth from this memory (bytes/s)
system.mem_ctrl.dram.bw_inst_read::total       125513                       # Instruction read bandwidth from this memory (bytes/s)
system.mem_ctrl.dram.bw_write::.writebacks     65230279                       # Write bandwidth from this memory (bytes/s)
system.mem_ctrl.dram.bw_write::total         65230279                       # Write bandwidth from this memory (bytes/s)
system.mem_ctrl.dram.bw_total::.writebacks     65230279                       # Total bandwidth to/from this memory (bytes/s)
system.mem_ctrl.dram.bw_total::.cpu.inst       125513                       # Total bandwidth to/from this memory (bytes/s)
system.mem_ctrl.dram.bw_total::.cpu.data     75439539                       # Total bandwidth to/from this memory (bytes/s)
system.mem_ctrl.dram.bw_total::total        140795330                       # Total bandwidth to/from this memory (bytes/s)
system.mem_ctrl.dram.readBursts               3086059                       # Number of DRAM read bursts
system.mem_ctrl.dram.writeBursts              2678558                       # Number of DRAM write bursts
system.mem_ctrl.dram.perBankRdBursts::0        189534                       # Per bank write bursts
system.mem_ctrl.dram.perBankRdBursts::1        187439                       # Per bank write bursts
system.mem_ctrl.dram.perBankRdBursts::2        206662                       # Per bank write bursts
system.mem_ctrl.dram.perBankRdBursts::3        186002                       # Per bank write bursts
system.mem_ctrl.dram.perBankRdBursts::4        190699                       # Per bank write bursts
system.mem_ctrl.dram.perBankRdBursts::5        186783                       # Per bank write bursts
system.mem_ctrl.dram.perBankRdBursts::6        188610                       # Per bank write bursts
system.mem_ctrl.dram.perBankRdBursts::7        184662                       # Per bank write bursts
system.mem_ctrl.dram.perBankRdBursts::8        187755                       # Per bank write bursts
system.mem_ctrl.dram.perBankRdBursts::9        199435                       # Per bank write bursts
system.mem_ctrl.dram.perBankRdBursts::10       198028                       # Per bank write bursts
system.mem_ctrl.dram.perBankRdBursts::11       194365                       # Per bank write bursts
system.mem_ctrl.dram.perBankRdBursts::12       214796                       # Per bank write bursts
system.mem_ctrl.dram.perBankRdBursts::13       194716                       # Per bank write bursts
system.mem_ctrl.dram.perBankRdBursts::14       190486                       # Per bank write bursts
system.mem_ctrl.dram.perBankRdBursts::15       186087                       # Per bank write bursts
system.mem_ctrl.dram.perBankWrBursts::0        162536                       # Per bank write bursts
system.mem_ctrl.dram.perBankWrBursts::1        162407                       # Per bank write bursts
system.mem_ctrl.dram.perBankWrBursts::2        162545                       # Per bank write bursts
system.mem_ctrl.dram.perBankWrBursts::3        162283                       # Per bank write bursts
system.mem_ctrl.dram.perBankWrBursts::4        163766                       # Per bank write bursts
system.mem_ctrl.dram.perBankWrBursts::5        162793                       # Per bank write bursts
system.mem_ctrl.dram.perBankWrBursts::6        162790                       # Per bank write bursts
system.mem_ctrl.dram.perBankWrBursts::7        162045                       # Per bank write bursts
system.mem_ctrl.dram.perBankWrBursts::8        162293                       # Per bank write bursts
system.mem_ctrl.dram.perBankWrBursts::9        175912                       # Per bank write bursts
system.mem_ctrl.dram.perBankWrBursts::10       173112                       # Per bank write bursts
system.mem_ctrl.dram.perBankWrBursts::11       171730                       # Per bank write bursts
system.mem_ctrl.dram.perBankWrBursts::12       198709                       # Per bank write bursts
system.mem_ctrl.dram.perBankWrBursts::13       170720                       # Per bank write bursts
system.mem_ctrl.dram.perBankWrBursts::14       162597                       # Per bank write bursts
system.mem_ctrl.dram.perBankWrBursts::15       162320                       # Per bank write bursts
system.mem_ctrl.dram.totQLat              26587962250                       # Total ticks spent queuing
system.mem_ctrl.dram.totBusLat            15430295000                       # Total ticks spent in databus transfers
system.mem_ctrl.dram.totMemAccLat         84451568500                       # Total ticks spent from burst creation until serviced by the DRAM
system.mem_ctrl.dram.avgQLat                  8615.51                       # Average queueing delay per DRAM burst
system.mem_ctrl.dram.avgBusLat                5000.00                       # Average bus latency per DRAM burst
system.mem_ctrl.dram.avgMemAccLat            27365.51                       # Average memory access latency per DRAM burst
system.mem_ctrl.dram.readRowHits              2586870                       # Number of row buffer hits during reads
system.mem_ctrl.dram.writeRowHits             2223864                       # Number of row buffer hits during writes
system.mem_ctrl.dram.readRowHitRate             83.82                       # Row buffer hit rate for reads
system.mem_ctrl.dram.writeRowHitRate            83.02                       # Row buffer hit rate for writes
system.mem_ctrl.dram.bytesPerActivate::samples       953874                       # Bytes accessed per row activation
system.mem_ctrl.dram.bytesPerActivate::mean   386.774505                       # Bytes accessed per row activation
system.mem_ctrl.dram.bytesPerActivate::gmean   258.361040                       # Bytes accessed per row activation
system.mem_ctrl.dram.bytesPerActivate::stdev   307.683272                       # Bytes accessed per row activation
system.mem_ctrl.dram.bytesPerActivate::0-127       225080     23.60%     23.60% # Bytes accessed per row activation
system.mem_ctrl.dram.bytesPerActivate::128-255       176358     18.49%     42.09% # Bytes accessed per row activation
system.mem_ctrl.dram.bytesPerActivate::256-383        99954     10.48%     52.56% # Bytes accessed per row activation
system.mem_ctrl.dram.bytesPerActivate::384-511       102352     10.73%     63.29% # Bytes accessed per row activation
system.mem_ctrl.dram.bytesPerActivate::512-639       146856     15.40%     78.69% # Bytes accessed per row activation
system.mem_ctrl.dram.bytesPerActivate::640-767        51989      5.45%     84.14% # Bytes accessed per row activation
system.mem_ctrl.dram.bytesPerActivate::768-895        42098      4.41%     88.55% # Bytes accessed per row activation
system.mem_ctrl.dram.bytesPerActivate::896-1023        31079      3.26%     91.81% # Bytes accessed per row activation
system.mem_ctrl.dram.bytesPerActivate::1024-1151        78108      8.19%    100.00% # Bytes accessed per row activation
system.mem_ctrl.dram.bytesPerActivate::total       953874                       # Bytes accessed per row activation
system.mem_ctrl.dram.bytesRead              197507776                       # Total number of bytes read from DRAM
system.mem_ctrl.dram.bytesWritten           171427712                       # Total number of bytes written to DRAM
system.mem_ctrl.dram.avgRdBW                75.153323                       # Average DRAM read bandwidth in MiBytes/s
system.mem_ctrl.dram.avgWrBW                65.229646                       # Average DRAM write bandwidth in MiBytes/s
system.mem_ctrl.dram.peakBW                  12800.00                       # Theoretical peak bandwidth in MiByte/s
system.mem_ctrl.dram.busUtil                     1.10                       # Data bus utilization in percentage
system.mem_ctrl.dram.busUtilRead                 0.59                       # Data bus utilization in percentage for reads
system.mem_ctrl.dram.busUtilWrite                0.51                       # Data bus utilization in percentage for writes
system.mem_ctrl.dram.pageHitRate                83.45                       # Row buffer hit rate, read and write combined
system.mem_ctrl.dram.power_state.pwrStateResidencyTicks::UNDEFINED 2628064431000                       # Cumulative time (in ticks) in various power states
system.mem_ctrl.dram.rank0.actEnergy       3320906820                       # Energy for activate commands per rank (pJ)
system.mem_ctrl.dram.rank0.preEnergy       1765081065                       # Energy for precharge commands per rank (pJ)
system.mem_ctrl.dram.rank0.readEnergy     10855591740                       # Energy for read commands per rank (pJ)
system.mem_ctrl.dram.rank0.writeEnergy     6792081300                       # Energy for write commands per rank (pJ)
system.mem_ctrl.dram.rank0.refreshEnergy 207456980640.000031                       # Energy for refresh commands per rank (pJ)
system.mem_ctrl.dram.rank0.actBackEnergy 363427249620                       # Energy for active background per rank (pJ)
system.mem_ctrl.dram.rank0.preBackEnergy 703132741920                       # Energy for precharge background per rank (pJ)
system.mem_ctrl.dram.rank0.actPowerDownEnergy            0                       # Energy for active power-down per rank (pJ)
system.mem_ctrl.dram.rank0.prePowerDownEnergy            0                       # Energy for precharge power-down per rank (pJ)
system.mem_ctrl.dram.rank0.selfRefreshEnergy            0                       # Energy for self refresh per rank (pJ)
system.mem_ctrl.dram.rank0.totalEnergy   1296750633105                       # Total energy per rank (pJ)
system.mem_ctrl.dram.rank0.averagePower    493.424217                       # Core power per rank (mW)
system.mem_ctrl.dram.rank0.totalIdleTime            0                       # Total Idle time Per DRAM Rank
system.mem_ctrl.dram.rank0.pwrStateTime::IDLE 1824156598750                       # Time in different power states
system.mem_ctrl.dram.rank0.pwrStateTime::REF  87756760000                       # Time in different power states
system.mem_ctrl.dram.rank0.pwrStateTime::SREF            0                       # Time in different power states
system.mem_ctrl.dram.rank0.pwrStateTime::PRE_PDN            0                       # Time in different power states
system.mem_ctrl.dram.rank0.pwrStateTime::ACT 716151072250                       # Time in different power states
system.mem_ctrl.dram.rank0.pwrStateTime::ACT_PDN            0                       # Time in different power states
system.mem_ctrl.dram.rank1.actEnergy       3489817800                       # Energy for activate commands per rank (pJ)
system.mem_ctrl.dram.rank1.preEnergy       1854870765                       # Energy for precharge commands per rank (pJ)
system.mem_ctrl.dram.rank1.readEnergy     11178869520                       # Energy for read commands per rank (pJ)
system.mem_ctrl.dram.rank1.writeEnergy     7189991460                       # Energy for write commands per rank (pJ)
system.mem_ctrl.dram.rank1.refreshEnergy 207456980640.000031                       # Energy for refresh commands per rank (pJ)
system.mem_ctrl.dram.rank1.actBackEnergy 377923786020                       # Energy for active background per rank (pJ)
system.mem_ctrl.dram.rank1.preBackEnergy 690925132320                       # Energy for precharge background per rank (pJ)
system.mem_ctrl.dram.rank1.actPowerDownEnergy            0                       # Energy for active power-down per rank (pJ)
system.mem_ctrl.dram.rank1.prePowerDownEnergy            0                       # Energy for precharge power-down per rank (pJ)
system.mem_ctrl.dram.rank1.selfRefreshEnergy            0                       # Energy for self refresh per rank (pJ)
system.mem_ctrl.dram.rank1.totalEnergy   1300019448525                       # Total energy per rank (pJ)
system.mem_ctrl.dram.rank1.averagePower    494.668028                       # Core power per rank (mW)
system.mem_ctrl.dram.rank1.totalIdleTime            0                       # Total Idle time Per DRAM Rank
system.mem_ctrl.dram.rank1.pwrStateTime::IDLE 1792425486500                       # Time in different power states
system.mem_ctrl.dram.rank1.pwrStateTime::REF  87756760000                       # Time in different power states
system.mem_ctrl.dram.rank1.pwrStateTime::SREF            0                       # Time in different power states
system.mem_ctrl.dram.rank1.pwrStateTime::PRE_PDN            0                       # Time in different power states
system.mem_ctrl.dram.rank1.pwrStateTime::ACT 747882184500                       # Time in different power states
system.mem_ctrl.dram.rank1.pwrStateTime::ACT_PDN            0                       # Time in different power states
system.mem_ctrl.power_state.pwrStateResidencyTicks::UNDEFINED 2628064431000                       # Cumulative time (in ticks) in various power states
system.membus.trans_dist::ReadResp            2234992                       # Transaction distribution
system.membus.trans_dist::WritebackDirty      2678584                       # Transaction distribution
system.membus.trans_dist::CleanEvict           421917                       # Transaction distribution
system.membus.trans_dist::ReadExReq            867974                       # Transaction distribution
system.membus.trans_dist::ReadExResp           867974                       # Transaction distribution
system.membus.trans_dist::ReadSharedReq       2234992                       # Transaction distribution
system.membus.pkt_count_system.l2cache.mem_side_port::system.mem_ctrl.port      9306433                       # Packet count per connected requestor and responder (bytes)
system.membus.pkt_count_system.l2cache.mem_side_port::total      9306433                       # Packet count per connected requestor and responder (bytes)
system.membus.pkt_count::total                9306433                       # Packet count per connected requestor and responder (bytes)
system.membus.pkt_size_system.l2cache.mem_side_port::system.mem_ctrl.port    370019200                       # Cumulative packet size per connected requestor and responder (bytes)
system.membus.pkt_size_system.l2cache.mem_side_port::total    370019200                       # Cumulative packet size per connected requestor and responder (bytes)
system.membus.pkt_size::total               370019200                       # Cumulative packet size per connected requestor and responder (bytes)
system.membus.snoops                                0                       # Total snoops (count)
system.membus.snoopTraffic                          0                       # Total snoop traffic (bytes)
system.membus.snoop_fanout::samples           3102966                       # Request fanout histogram
system.membus.snoop_fanout::mean                    0                       # Request fanout histogram
system.membus.snoop_fanout::stdev                   0                       # Request fanout histogram
system.membus.snoop_fanout::underflows              0      0.00%      0.00% # Request fanout histogram
system.membus.snoop_fanout::0                 3102966    100.00%    100.00% # Request fanout histogram
system.membus.snoop_fanout::1                       0      0.00%    100.00% # Request fanout histogram
system.membus.snoop_fanout::overflows               0      0.00%    100.00% # Request fanout histogram
system.membus.snoop_fanout::min_value               0                       # Request fanout histogram
system.membus.snoop_fanout::max_value               0                       # Request fanout histogram
system.membus.snoop_fanout::total             3102966                       # Request fanout histogram
system.membus.power_state.pwrStateResidencyTicks::UNDEFINED 2628064431000                       # Cumulative time (in ticks) in various power states
system.membus.reqLayer2.occupancy         16917803000                       # Layer occupancy (ticks)
system.membus.reqLayer2.utilization               0.6                       # Layer utilization (%)
system.membus.respLayer0.occupancy        16440757000                       # Layer occupancy (ticks)
system.membus.respLayer0.utilization              0.6                       # Layer utilization (%)

---------- End Simulation Statistics   ----------
