
---------- Begin Simulation Statistics ----------
final_tick                               756114703000                       # Number of ticks from beginning of simulation (restored from checkpoints and never reset)
host_inst_rate                                 429398                       # Simulator instruction rate (inst/s)
host_mem_usage                                 675468                       # Number of bytes of host memory used
host_op_rate                                   691795                       # Simulator op (including micro ops) rate (op/s)
host_seconds                                   378.40                       # Real time elapsed on the host
host_tick_rate                             1998211602                       # Simulator tick rate (ticks/s)
sim_freq                                 1000000000000                       # Frequency of simulated ticks
sim_insts                                   162482117                       # Number of instructions simulated
sim_ops                                     261772109                       # Number of ops (including micro ops) simulated
sim_seconds                                  0.756115                       # Number of seconds simulated
sim_ticks                                756114703000                       # Number of ticks simulated
system.cpu.Branches                           1513283                       # Number of branches fetched
system.cpu.committedInsts                   162482117                       # Number of instructions committed
system.cpu.committedOps                     261772109                       # Number of ops (including micro ops) committed
system.cpu.idle_fraction                     0.000000                       # Percentage of idle cycles
system.cpu.not_idle_fraction                 1.000000                       # Percentage of non-idle cycles
system.cpu.numCycles                        756114703                       # number of cpu cycles simulated
system.cpu.numWorkItemsCompleted                    0                       # number of work items this cpu completed
system.cpu.numWorkItemsStarted                      0                       # number of work items this cpu started
system.cpu.num_busy_cycles               756114702.999000                       # Number of busy cycles
system.cpu.num_cc_register_reads              7365428                       # number of times the CC registers were read
system.cpu.num_cc_register_writes            11742807                       # number of times the CC registers were written
system.cpu.num_conditional_control_insts      1421664                       # number of instructions that are conditional controls
system.cpu.num_fp_alu_accesses              228031846                       # Number of float alu accesses
system.cpu.num_fp_insts                     228031846                       # number of float instructions
system.cpu.num_fp_register_reads            368336050                       # number of times the floating registers were read
system.cpu.num_fp_register_writes           210807642                       # number of times the floating registers were written
system.cpu.num_func_calls                       53430                       # number of times a function call or return occured
system.cpu.num_idle_cycles                   0.001000                       # Number of idle cycles
system.cpu.num_int_alu_accesses             103312592                       # Number of integer alu accesses
system.cpu.num_int_insts                    103312592                       # number of integer instructions
system.cpu.num_int_register_reads           260490932                       # number of times the integer registers were read
system.cpu.num_int_register_writes           28267129                       # number of times the integer registers were written
system.cpu.num_load_insts                    54401384                       # Number of load instructions
system.cpu.num_mem_refs                      75494990                       # number of memory refs
system.cpu.num_store_insts                   21093606                       # Number of store instructions
system.cpu.num_vec_alu_accesses                     0                       # Number of vector alu accesses
system.cpu.num_vec_insts                            0                       # number of vector instructions
system.cpu.num_vec_register_reads                   0                       # number of times the vector registers were read
system.cpu.num_vec_register_writes                  0                       # number of times the vector registers were written
system.cpu.op_class::No_OpClass                114295      0.04%      0.04% # Class of executed instruction
system.cpu.op_class::IntAlu                  64498468     24.64%     24.68% # Class of executed instruction
system.cpu.op_class::IntMult                    19665      0.01%     24.69% # Class of executed instruction
system.cpu.op_class::IntDiv                      1309      0.00%     24.69% # Class of executed instruction
system.cpu.op_class::FloatAdd                26235189     10.02%     34.71% # Class of executed instruction
system.cpu.op_class::FloatCmp                       0      0.00%     34.71% # Class of executed instruction
system.cpu.op_class::FloatCvt                       0      0.00%     34.71% # Class of executed instruction
system.cpu.op_class::FloatMult                      0      0.00%     34.71% # Class of executed instruction
system.cpu.op_class::FloatMultAcc                   0      0.00%     34.71% # Class of executed instruction
system.cpu.op_class::FloatDiv                       0      0.00%     34.71% # Class of executed instruction
system.cpu.op_class::FloatMisc                      0      0.00%     34.71% # Class of executed instruction
system.cpu.op_class::FloatSqrt                      0      0.00%     34.71% # Class of executed instruction
system.cpu.op_class::SimdAdd                     8730      0.00%     34.72% # Class of executed instruction
system.cpu.op_class::SimdAddAcc                     0      0.00%     34.72% # Class of executed instruction
system.cpu.op_class::SimdAlu                  8054809      3.08%     37.79% # Class of executed instruction
system.cpu.op_class::SimdCmp                       18      0.00%     37.79% # Class of executed instruction
system.cpu.op_class::SimdCvt                     1500      0.00%     37.79% # Class of executed instruction
system.cpu.op_class::SimdMisc                  476679      0.18%     37.98% # Class of executed instruction
system.cpu.op_class::SimdMult                       0      0.00%     37.98% # Class of executed instruction
system.cpu.op_class::SimdMultAcc                    0      0.00%     37.98% # Class of executed instruction
system.cpu.op_class::SimdShift                      9      0.00%     37.98% # Class of executed instruction
system.cpu.op_class::SimdShiftAcc                   0      0.00%     37.98% # Class of executed instruction
system.cpu.op_class::SimdDiv                        0      0.00%     37.98% # Class of executed instruction
system.cpu.op_class::SimdSqrt                       0      0.00%     37.98% # Class of executed instruction
system.cpu.op_class::SimdFloatAdd            34232648     13.08%     51.05% # Class of executed instruction
system.cpu.op_class::SimdFloatAlu                   0      0.00%     51.05% # Class of executed instruction
system.cpu.op_class::SimdFloatCmp                   0      0.00%     51.05% # Class of executed instruction
system.cpu.op_class::SimdFloatCvt              101836      0.04%     51.09% # Class of executed instruction
system.cpu.op_class::SimdFloatDiv             1077659      0.41%     51.50% # Class of executed instruction
system.cpu.op_class::SimdFloatMisc                  0      0.00%     51.50% # Class of executed instruction
system.cpu.op_class::SimdFloatMult           51454394     19.66%     71.16% # Class of executed instruction
system.cpu.op_class::SimdFloatMultAcc               0      0.00%     71.16% # Class of executed instruction
system.cpu.op_class::SimdFloatSqrt                 25      0.00%     71.16% # Class of executed instruction
system.cpu.op_class::SimdReduceAdd                  0      0.00%     71.16% # Class of executed instruction
system.cpu.op_class::SimdReduceAlu                  0      0.00%     71.16% # Class of executed instruction
system.cpu.op_class::SimdReduceCmp                  0      0.00%     71.16% # Class of executed instruction
system.cpu.op_class::SimdFloatReduceAdd             0      0.00%     71.16% # Class of executed instruction
system.cpu.op_class::SimdFloatReduceCmp             0      0.00%     71.16% # Class of executed instruction
system.cpu.op_class::SimdAes                        0      0.00%     71.16% # Class of executed instruction
system.cpu.op_class::SimdAesMix                     0      0.00%     71.16% # Class of executed instruction
system.cpu.op_class::SimdSha1Hash                   0      0.00%     71.16% # Class of executed instruction
system.cpu.op_class::SimdSha1Hash2                  0      0.00%     71.16% # Class of executed instruction
system.cpu.op_class::SimdSha256Hash                 0      0.00%     71.16% # Class of executed instruction
system.cpu.op_class::SimdSha256Hash2                0      0.00%     71.16% # Class of executed instruction
system.cpu.op_class::SimdShaSigma2                  0      0.00%     71.16% # Class of executed instruction
system.cpu.op_class::SimdShaSigma3                  0      0.00%     71.16% # Class of executed instruction
system.cpu.op_class::SimdPredAlu                    0      0.00%     71.16% # Class of executed instruction
system.cpu.op_class::MemRead                  2072679      0.79%     71.95% # Class of executed instruction
system.cpu.op_class::MemWrite                 3871046      1.48%     73.43% # Class of executed instruction
system.cpu.op_class::FloatMemRead            52328705     19.99%     93.42% # Class of executed instruction
system.cpu.op_class::FloatMemWrite           17222560      6.58%    100.00% # Class of executed instruction
system.cpu.op_class::IprAccess                      0      0.00%    100.00% # Class of executed instruction
system.cpu.op_class::InstPrefetch                   0      0.00%    100.00% # Class of executed instruction
system.cpu.op_class::total                  261772223                       # Class of executed instruction
system.cpu.workload.numSyscalls                    89                       # Number of system calls
system.l2bus.snoop_filter.hit_multi_requests            0                       # Number of requests hitting in the snoop filter with multiple (>1) holders of the requested data.
system.l2bus.snoop_filter.hit_multi_snoops            0                       # Number of snoops hitting in the snoop filter with multiple (>1) holders of the requested data.
system.l2bus.snoop_filter.hit_single_requests      3054379                       # Number of requests hitting in the snoop filter with a single holder of the requested data.
system.l2bus.snoop_filter.hit_single_snoops        21603                       # Number of snoops hitting in the snoop filter with a single holder of the requested data.
system.l2bus.snoop_filter.tot_requests        6110038                       # Total number of requests made to the snoop filter.
system.l2bus.snoop_filter.tot_snoops            21603                       # Total number of snoops made to the snoop filter.
system.membus.snoop_filter.hit_multi_requests            0                       # Number of requests hitting in the snoop filter with multiple (>1) holders of the requested data.
system.membus.snoop_filter.hit_multi_snoops            0                       # Number of snoops hitting in the snoop filter with multiple (>1) holders of the requested data.
system.membus.snoop_filter.hit_single_requests       291076                       # Number of requests hitting in the snoop filter with a single holder of the requested data.
system.membus.snoop_filter.hit_single_snoops            0                       # Number of snoops hitting in the snoop filter with a single holder of the requested data.
system.membus.snoop_filter.tot_requests        586317                       # Total number of requests made to the snoop filter.
system.membus.snoop_filter.tot_snoops               0                       # Total number of snoops made to the snoop filter.
system.clk_domain.clock                          1000                       # Clock period in ticks
system.clk_domain.voltage_domain.voltage            1                       # Voltage in Volts
system.cpu.dcache.demand_hits::.cpu.data     72495175                       # number of demand (read+write) hits
system.cpu.dcache.demand_hits::total         72495175                       # number of demand (read+write) hits
system.cpu.dcache.overall_hits::.cpu.data     72495175                       # number of overall hits
system.cpu.dcache.overall_hits::total        72495175                       # number of overall hits
system.cpu.dcache.demand_misses::.cpu.data      2999950                       # number of demand (read+write) misses
system.cpu.dcache.demand_misses::total        2999950                       # number of demand (read+write) misses
system.cpu.dcache.overall_misses::.cpu.data      2999950                       # number of overall misses
system.cpu.dcache.overall_misses::total       2999950                       # number of overall misses
system.cpu.dcache.demand_miss_latency::.cpu.data  98075030000                       # number of demand (read+write) miss cycles
system.cpu.dcache.demand_miss_latency::total  98075030000                       # number of demand (read+write) miss cycles
system.cpu.dcache.overall_miss_latency::.cpu.data  98075030000                       # number of overall miss cycles
system.cpu.dcache.overall_miss_latency::total  98075030000                       # number of overall miss cycles
system.cpu.dcache.demand_accesses::.cpu.data     75495125                       # number of demand (read+write) accesses
system.cpu.dcache.demand_accesses::total     75495125                       # number of demand (read+write) accesses
system.cpu.dcache.overall_accesses::.cpu.data     75495125                       # number of overall (read+write) accesses
system.cpu.dcache.overall_accesses::total     75495125                       # number of overall (read+write) accesses
system.cpu.dcache.demand_miss_rate::.cpu.data     0.039737                       # miss rate for demand accesses
system.cpu.dcache.demand_miss_rate::total     0.039737                       # miss rate for demand accesses
system.cpu.dcache.overall_miss_rate::.cpu.data     0.039737                       # miss rate for overall accesses
system.cpu.dcache.overall_miss_rate::total     0.039737                       # miss rate for overall accesses
system.cpu.dcache.demand_avg_miss_latency::.cpu.data 32692.221537                       # average overall miss latency
system.cpu.dcache.demand_avg_miss_latency::total 32692.221537                       # average overall miss latency
system.cpu.dcache.overall_avg_miss_latency::.cpu.data 32692.221537                       # average overall miss latency
system.cpu.dcache.overall_avg_miss_latency::total 32692.221537                       # average overall miss latency
system.cpu.dcache.blocked_cycles::no_mshrs            0                       # number of cycles access was blocked
system.cpu.dcache.blocked_cycles::no_targets            0                       # number of cycles access was blocked
system.cpu.dcache.blocked::no_mshrs                 0                       # number of cycles access was blocked
system.cpu.dcache.blocked::no_targets               0                       # number of cycles access was blocked
system.cpu.dcache.avg_blocked_cycles::no_mshrs          nan                       # average number of cycles each access was blocked
system.cpu.dcache.avg_blocked_cycles::no_targets          nan                       # average number of cycles each access was blocked
system.cpu.dcache.writebacks::.writebacks      2769918                       # number of writebacks
system.cpu.dcache.writebacks::total           2769918                       # number of writebacks
system.cpu.dcache.demand_mshr_misses::.cpu.data      2999950                       # number of demand (read+write) MSHR misses
system.cpu.dcache.demand_mshr_misses::total      2999950                       # number of demand (read+write) MSHR misses
system.cpu.dcache.overall_mshr_misses::.cpu.data      2999950                       # number of overall MSHR misses
system.cpu.dcache.overall_mshr_misses::total      2999950                       # number of overall MSHR misses
system.cpu.dcache.demand_mshr_miss_latency::.cpu.data  92075130000                       # number of demand (read+write) MSHR miss cycles
system.cpu.dcache.demand_mshr_miss_latency::total  92075130000                       # number of demand (read+write) MSHR miss cycles
system.cpu.dcache.overall_mshr_miss_latency::.cpu.data  92075130000                       # number of overall MSHR miss cycles
system.cpu.dcache.overall_mshr_miss_latency::total  92075130000                       # number of overall MSHR miss cycles
system.cpu.dcache.demand_mshr_miss_rate::.cpu.data     0.039737                       # mshr miss rate for demand accesses
system.cpu.dcache.demand_mshr_miss_rate::total     0.039737                       # mshr miss rate for demand accesses
system.cpu.dcache.overall_mshr_miss_rate::.cpu.data     0.039737                       # mshr miss rate for overall accesses
system.cpu.dcache.overall_mshr_miss_rate::total     0.039737                       # mshr miss rate for overall accesses
system.cpu.dcache.demand_avg_mshr_miss_latency::.cpu.data 30692.221537                       # average overall mshr miss latency
system.cpu.dcache.demand_avg_mshr_miss_latency::total 30692.221537                       # average overall mshr miss latency
system.cpu.dcache.overall_avg_mshr_miss_latency::.cpu.data 30692.221537                       # average overall mshr miss latency
system.cpu.dcache.overall_avg_mshr_miss_latency::total 30692.221537                       # average overall mshr miss latency
system.cpu.dcache.replacements                2998926                       # number of replacements
system.cpu.dcache.ReadReq_hits::.cpu.data     52517216                       # number of ReadReq hits
system.cpu.dcache.ReadReq_hits::total        52517216                       # number of ReadReq hits
system.cpu.dcache.ReadReq_misses::.cpu.data      1884286                       # number of ReadReq misses
system.cpu.dcache.ReadReq_misses::total       1884286                       # number of ReadReq misses
system.cpu.dcache.ReadReq_miss_latency::.cpu.data  60061576000                       # number of ReadReq miss cycles
system.cpu.dcache.ReadReq_miss_latency::total  60061576000                       # number of ReadReq miss cycles
system.cpu.dcache.ReadReq_accesses::.cpu.data     54401502                       # number of ReadReq accesses(hits+misses)
system.cpu.dcache.ReadReq_accesses::total     54401502                       # number of ReadReq accesses(hits+misses)
system.cpu.dcache.ReadReq_miss_rate::.cpu.data     0.034637                       # miss rate for ReadReq accesses
system.cpu.dcache.ReadReq_miss_rate::total     0.034637                       # miss rate for ReadReq accesses
system.cpu.dcache.ReadReq_avg_miss_latency::.cpu.data 31874.978639                       # average ReadReq miss latency
system.cpu.dcache.ReadReq_avg_miss_latency::total 31874.978639                       # average ReadReq miss latency
system.cpu.dcache.ReadReq_mshr_misses::.cpu.data      1884286                       # number of ReadReq MSHR misses
system.cpu.dcache.ReadReq_mshr_misses::total      1884286                       # number of ReadReq MSHR misses
system.cpu.dcache.ReadReq_mshr_miss_latency::.cpu.data  56293004000                       # number of ReadReq MSHR miss cycles
system.cpu.dcache.ReadReq_mshr_miss_latency::total  56293004000                       # number of ReadReq MSHR miss cycles
system.cpu.dcache.ReadReq_mshr_miss_rate::.cpu.data     0.034637                       # mshr miss rate for ReadReq accesses
system.cpu.dcache.ReadReq_mshr_miss_rate::total     0.034637                       # mshr miss rate for ReadReq accesses
system.cpu.dcache.ReadReq_avg_mshr_miss_latency::.cpu.data 29874.978639                       # average ReadReq mshr miss latency
system.cpu.dcache.ReadReq_avg_mshr_miss_latency::total 29874.978639                       # average ReadReq mshr miss latency
system.cpu.dcache.WriteReq_hits::.cpu.data     19977959                       # number of WriteReq hits
system.cpu.dcache.WriteReq_hits::total       19977959                       # number of WriteReq hits
system.cpu.dcache.WriteReq_misses::.cpu.data      1115664                       # number of WriteReq misses
system.cpu.dcache.WriteReq_misses::total      1115664                       # number of WriteReq misses
system.cpu.dcache.WriteReq_miss_latency::.cpu.data  38013454000                       # number of WriteReq miss cycles
system.cpu.dcache.WriteReq_miss_latency::total  38013454000                       # number of WriteReq miss cycles
system.cpu.dcache.WriteReq_accesses::.cpu.data     21093623                       # number of WriteReq accesses(hits+misses)
system.cpu.dcache.WriteReq_accesses::total     21093623                       # number of WriteReq accesses(hits+misses)
system.cpu.dcache.WriteReq_miss_rate::.cpu.data     0.052891                       # miss rate for WriteReq accesses
system.cpu.dcache.WriteReq_miss_rate::total     0.052891                       # miss rate for WriteReq accesses
system.cpu.dcache.WriteReq_avg_miss_latency::.cpu.data 34072.493152                       # average WriteReq miss latency
system.cpu.dcache.WriteReq_avg_miss_latency::total 34072.493152                       # average WriteReq miss latency
system.cpu.dcache.WriteReq_mshr_misses::.cpu.data      1115664                       # number of WriteReq MSHR misses
system.cpu.dcache.WriteReq_mshr_misses::total      1115664                       # number of WriteReq MSHR misses
system.cpu.dcache.WriteReq_mshr_miss_latency::.cpu.data  35782126000                       # number of WriteReq MSHR miss cycles
system.cpu.dcache.WriteReq_mshr_miss_latency::total  35782126000                       # number of WriteReq MSHR miss cycles
system.cpu.dcache.WriteReq_mshr_miss_rate::.cpu.data     0.052891                       # mshr miss rate for WriteReq accesses
system.cpu.dcache.WriteReq_mshr_miss_rate::total     0.052891                       # mshr miss rate for WriteReq accesses
system.cpu.dcache.WriteReq_avg_mshr_miss_latency::.cpu.data 32072.493152                       # average WriteReq mshr miss latency
system.cpu.dcache.WriteReq_avg_mshr_miss_latency::total 32072.493152                       # average WriteReq mshr miss latency
system.cpu.dcache.power_state.pwrStateResidencyTicks::UNDEFINED 756114703000                       # Cumulative time (in ticks) in various power states
system.cpu.dcache.tags.tagsinuse          1023.427252                       # Cycle average of tags in use
system.cpu.dcache.tags.total_refs            75495125                       # Total number of references to valid blocks.
system.cpu.dcache.tags.sampled_refs           2999950                       # Sample count of references to valid blocks.
system.cpu.dcache.tags.avg_refs             25.165461                       # Average number of references to valid blocks.
system.cpu.dcache.tags.warmup_cycle            224000                       # Cycle when the warmup percentage was hit.
system.cpu.dcache.tags.occ_blocks::.cpu.data  1023.427252                       # Average occupied blocks per requestor
system.cpu.dcache.tags.occ_percent::.cpu.data     0.999441                       # Average percentage of cache occupancy
system.cpu.dcache.tags.occ_percent::total     0.999441                       # Average percentage of cache occupancy
system.cpu.dcache.tags.occ_task_id_blocks::1024         1024                       # Occupied blocks per task id
system.cpu.dcache.tags.age_task_id_blocks_1024::0           26                       # Occupied blocks per task id
system.cpu.dcache.tags.age_task_id_blocks_1024::1          113                       # Occupied blocks per task id
system.cpu.dcache.tags.age_task_id_blocks_1024::2          470                       # Occupied blocks per task id
system.cpu.dcache.tags.age_task_id_blocks_1024::3          415                       # Occupied blocks per task id
system.cpu.dcache.tags.occ_task_id_percent::1024            1                       # Percentage of cache occupancy per task id
system.cpu.dcache.tags.tag_accesses         153990200                       # Number of tag accesses
system.cpu.dcache.tags.data_accesses        153990200                       # Number of data accesses
system.cpu.dcache.tags.power_state.pwrStateResidencyTicks::UNDEFINED 756114703000                       # Cumulative time (in ticks) in various power states
system.cpu.dtb.rdAccesses                    54401503                       # TLB accesses on read requests
system.cpu.dtb.wrAccesses                    21093647                       # TLB accesses on write requests
system.cpu.dtb.rdMisses                          5333                       # TLB misses on read requests
system.cpu.dtb.wrMisses                          2475                       # TLB misses on write requests
system.cpu.dtb.walker.power_state.pwrStateResidencyTicks::UNDEFINED 756114703000                       # Cumulative time (in ticks) in various power states
system.cpu.icache.demand_hits::.cpu.inst    254337946                       # number of demand (read+write) hits
system.cpu.icache.demand_hits::total        254337946                       # number of demand (read+write) hits
system.cpu.icache.overall_hits::.cpu.inst    254337946                       # number of overall hits
system.cpu.icache.overall_hits::total       254337946                       # number of overall hits
system.cpu.icache.demand_misses::.cpu.inst        55709                       # number of demand (read+write) misses
system.cpu.icache.demand_misses::total          55709                       # number of demand (read+write) misses
system.cpu.icache.overall_misses::.cpu.inst        55709                       # number of overall misses
system.cpu.icache.overall_misses::total         55709                       # number of overall misses
system.cpu.icache.demand_miss_latency::.cpu.inst   4373786000                       # number of demand (read+write) miss cycles
system.cpu.icache.demand_miss_latency::total   4373786000                       # number of demand (read+write) miss cycles
system.cpu.icache.overall_miss_latency::.cpu.inst   4373786000                       # number of overall miss cycles
system.cpu.icache.overall_miss_latency::total   4373786000                       # number of overall miss cycles
system.cpu.icache.demand_accesses::.cpu.inst    254393655                       # number of demand (read+write) accesses
system.cpu.icache.demand_accesses::total    254393655                       # number of demand (read+write) accesses
system.cpu.icache.overall_accesses::.cpu.inst    254393655                       # number of overall (read+write) accesses
system.cpu.icache.overall_accesses::total    254393655                       # number of overall (read+write) accesses
system.cpu.icache.demand_miss_rate::.cpu.inst     0.000219                       # miss rate for demand accesses
system.cpu.icache.demand_miss_rate::total     0.000219                       # miss rate for demand accesses
system.cpu.icache.overall_miss_rate::.cpu.inst     0.000219                       # miss rate for overall accesses
system.cpu.icache.overall_miss_rate::total     0.000219                       # miss rate for overall accesses
system.cpu.icache.demand_avg_miss_latency::.cpu.inst 78511.299790                       # average overall miss latency
system.cpu.icache.demand_avg_miss_latency::total 78511.299790                       # average overall miss latency
system.cpu.icache.overall_avg_miss_latency::.cpu.inst 78511.299790                       # average overall miss latency
system.cpu.icache.overall_avg_miss_latency::total 78511.299790                       # average overall miss latency
system.cpu.icache.blocked_cycles::no_mshrs            0                       # number of cycles access was blocked
system.cpu.icache.blocked_cycles::no_targets            0                       # number of cycles access was blocked
system.cpu.icache.blocked::no_mshrs                 0                       # number of cycles access was blocked
system.cpu.icache.blocked::no_targets               0                       # number of cycles access was blocked
system.cpu.icache.avg_blocked_cycles::no_mshrs          nan                       # average number of cycles each access was blocked
system.cpu.icache.avg_blocked_cycles::no_targets          nan                       # average number of cycles each access was blocked
system.cpu.icache.demand_mshr_misses::.cpu.inst        55709                       # number of demand (read+write) MSHR misses
system.cpu.icache.demand_mshr_misses::total        55709                       # number of demand (read+write) MSHR misses
system.cpu.icache.overall_mshr_misses::.cpu.inst        55709                       # number of overall MSHR misses
system.cpu.icache.overall_mshr_misses::total        55709                       # number of overall MSHR misses
system.cpu.icache.demand_mshr_miss_latency::.cpu.inst   4262368000                       # number of demand (read+write) MSHR miss cycles
system.cpu.icache.demand_mshr_miss_latency::total   4262368000                       # number of demand (read+write) MSHR miss cycles
system.cpu.icache.overall_mshr_miss_latency::.cpu.inst   4262368000                       # number of overall MSHR miss cycles
system.cpu.icache.overall_mshr_miss_latency::total   4262368000                       # number of overall MSHR miss cycles
system.cpu.icache.demand_mshr_miss_rate::.cpu.inst     0.000219                       # mshr miss rate for demand accesses
system.cpu.icache.demand_mshr_miss_rate::total     0.000219                       # mshr miss rate for demand accesses
system.cpu.icache.overall_mshr_miss_rate::.cpu.inst     0.000219                       # mshr miss rate for overall accesses
system.cpu.icache.overall_mshr_miss_rate::total     0.000219                       # mshr miss rate for overall accesses
system.cpu.icache.demand_avg_mshr_miss_latency::.cpu.inst 76511.299790                       # average overall mshr miss latency
system.cpu.icache.demand_avg_mshr_miss_latency::total 76511.299790                       # average overall mshr miss latency
system.cpu.icache.overall_avg_mshr_miss_latency::.cpu.inst 76511.299790                       # average overall mshr miss latency
system.cpu.icache.overall_avg_mshr_miss_latency::total 76511.299790                       # average overall mshr miss latency
system.cpu.icache.replacements                  55453                       # number of replacements
system.cpu.icache.ReadReq_hits::.cpu.inst    254337946                       # number of ReadReq hits
system.cpu.icache.ReadReq_hits::total       254337946                       # number of ReadReq hits
system.cpu.icache.ReadReq_misses::.cpu.inst        55709                       # number of ReadReq misses
system.cpu.icache.ReadReq_misses::total         55709                       # number of ReadReq misses
system.cpu.icache.ReadReq_miss_latency::.cpu.inst   4373786000                       # number of ReadReq miss cycles
system.cpu.icache.ReadReq_miss_latency::total   4373786000                       # number of ReadReq miss cycles
system.cpu.icache.ReadReq_accesses::.cpu.inst    254393655                       # number of ReadReq accesses(hits+misses)
system.cpu.icache.ReadReq_accesses::total    254393655                       # number of ReadReq accesses(hits+misses)
system.cpu.icache.ReadReq_miss_rate::.cpu.inst     0.000219                       # miss rate for ReadReq accesses
system.cpu.icache.ReadReq_miss_rate::total     0.000219                       # miss rate for ReadReq accesses
system.cpu.icache.ReadReq_avg_miss_latency::.cpu.inst 78511.299790                       # average ReadReq miss latency
system.cpu.icache.ReadReq_avg_miss_latency::total 78511.299790                       # average ReadReq miss latency
system.cpu.icache.ReadReq_mshr_misses::.cpu.inst        55709                       # number of ReadReq MSHR misses
system.cpu.icache.ReadReq_mshr_misses::total        55709                       # number of ReadReq MSHR misses
system.cpu.icache.ReadReq_mshr_miss_latency::.cpu.inst   4262368000                       # number of ReadReq MSHR miss cycles
system.cpu.icache.ReadReq_mshr_miss_latency::total   4262368000                       # number of ReadReq MSHR miss cycles
system.cpu.icache.ReadReq_mshr_miss_rate::.cpu.inst     0.000219                       # mshr miss rate for ReadReq accesses
system.cpu.icache.ReadReq_mshr_miss_rate::total     0.000219                       # mshr miss rate for ReadReq accesses
system.cpu.icache.ReadReq_avg_mshr_miss_latency::.cpu.inst 76511.299790                       # average ReadReq mshr miss latency
system.cpu.icache.ReadReq_avg_mshr_miss_latency::total 76511.299790                       # average ReadReq mshr miss latency
system.cpu.icache.power_state.pwrStateResidencyTicks::UNDEFINED 756114703000                       # Cumulative time (in ticks) in various power states
system.cpu.icache.tags.tagsinuse           255.983108                       # Cycle average of tags in use
system.cpu.icache.tags.total_refs           254393655                       # Total number of references to valid blocks.
system.cpu.icache.tags.sampled_refs             55709                       # Sample count of references to valid blocks.
system.cpu.icache.tags.avg_refs           4566.473191                       # Average number of references to valid blocks.
system.cpu.icache.tags.warmup_cycle            107000                       # Cycle when the warmup percentage was hit.
system.cpu.icache.tags.occ_blocks::.cpu.inst   255.983108                       # Average occupied blocks per requestor
system.cpu.icache.tags.occ_percent::.cpu.inst     0.999934                       # Average percentage of cache occupancy
system.cpu.icache.tags.occ_percent::total     0.999934                       # Average percentage of cache occupancy
system.cpu.icache.tags.occ_task_id_blocks::1024          256                       # Occupied blocks per task id
system.cpu.icache.tags.age_task_id_blocks_1024::0           32                       # Occupied blocks per task id
system.cpu.icache.tags.age_task_id_blocks_1024::1          107                       # Occupied blocks per task id
system.cpu.icache.tags.age_task_id_blocks_1024::2          108                       # Occupied blocks per task id
system.cpu.icache.tags.age_task_id_blocks_1024::3            9                       # Occupied blocks per task id
system.cpu.icache.tags.occ_task_id_percent::1024            1                       # Percentage of cache occupancy per task id
system.cpu.icache.tags.tag_accesses         508843019                       # Number of tag accesses
system.cpu.icache.tags.data_accesses        508843019                       # Number of data accesses
system.cpu.icache.tags.power_state.pwrStateResidencyTicks::UNDEFINED 756114703000                       # Cumulative time (in ticks) in various power states
system.cpu.interrupts.clk_domain.clock          16000                       # Clock period in ticks
system.cpu.itb.rdAccesses                           0                       # TLB accesses on read requests
system.cpu.itb.wrAccesses                   254393655                       # TLB accesses on write requests
system.cpu.itb.rdMisses                             0                       # TLB misses on read requests
system.cpu.itb.wrMisses                           138                       # TLB misses on write requests
system.cpu.itb.walker.power_state.pwrStateResidencyTicks::UNDEFINED 756114703000                       # Cumulative time (in ticks) in various power states
system.cpu.power_state.pwrStateResidencyTicks::ON 756114703000                       # Cumulative time (in ticks) in various power states
system.cpu.thread_0.numInsts                        0                       # Number of Instructions committed
system.cpu.thread_0.numOps                          0                       # Number of Ops committed
system.cpu.thread_0.numMemRefs                      0                       # Number of Memory References
system.l2bus.trans_dist::ReadResp             1939995                       # Transaction distribution
system.l2bus.trans_dist::WritebackDirty       2915851                       # Transaction distribution
system.l2bus.trans_dist::CleanEvict            431123                       # Transaction distribution
system.l2bus.trans_dist::ReadExReq            1115664                       # Transaction distribution
system.l2bus.trans_dist::ReadExResp           1115664                       # Transaction distribution
system.l2bus.trans_dist::ReadSharedReq        1939995                       # Transaction distribution
system.l2bus.pkt_count_system.cpu.icache.mem_side_port::system.l2cache.cpu_side_port       166871                       # Packet count per connected requestor and responder (bytes)
system.l2bus.pkt_count_system.cpu.dcache.mem_side_port::system.l2cache.cpu_side_port      8998826                       # Packet count per connected requestor and responder (bytes)
system.l2bus.pkt_count::total                 9165697                       # Packet count per connected requestor and responder (bytes)
system.l2bus.pkt_size_system.cpu.icache.mem_side_port::system.l2cache.cpu_side_port      3565376                       # Cumulative packet size per connected requestor and responder (bytes)
system.l2bus.pkt_size_system.cpu.dcache.mem_side_port::system.l2cache.cpu_side_port    369271552                       # Cumulative packet size per connected requestor and responder (bytes)
system.l2bus.pkt_size::total                372836928                       # Cumulative packet size per connected requestor and responder (bytes)
system.l2bus.snoops                            292595                       # Total snoops (count)
system.l2bus.snoopTraffic                     9339712                       # Total snoop traffic (bytes)
system.l2bus.snoop_fanout::samples            3348254                       # Request fanout histogram
system.l2bus.snoop_fanout::mean              0.006452                       # Request fanout histogram
system.l2bus.snoop_fanout::stdev             0.080065                       # Request fanout histogram
system.l2bus.snoop_fanout::underflows               0      0.00%      0.00% # Request fanout histogram
system.l2bus.snoop_fanout::0                  3326651     99.35%     99.35% # Request fanout histogram
system.l2bus.snoop_fanout::1                    21603      0.65%    100.00% # Request fanout histogram
system.l2bus.snoop_fanout::2                        0      0.00%    100.00% # Request fanout histogram
system.l2bus.snoop_fanout::overflows                0      0.00%    100.00% # Request fanout histogram
system.l2bus.snoop_fanout::min_value                0                       # Request fanout histogram
system.l2bus.snoop_fanout::max_value                1                       # Request fanout histogram
system.l2bus.snoop_fanout::total              3348254                       # Request fanout histogram
system.l2bus.power_state.pwrStateResidencyTicks::UNDEFINED 756114703000                       # Cumulative time (in ticks) in various power states
system.l2bus.reqLayer0.occupancy          11649874000                       # Layer occupancy (ticks)
system.l2bus.reqLayer0.utilization                1.5                       # Layer utilization (%)
system.l2bus.respLayer0.occupancy           167127000                       # Layer occupancy (ticks)
system.l2bus.respLayer0.utilization               0.0                       # Layer utilization (%)
system.l2bus.respLayer1.occupancy          8999850000                       # Layer occupancy (ticks)
system.l2bus.respLayer1.utilization               1.2                       # Layer utilization (%)
system.l2cache.demand_hits::.cpu.inst           17199                       # number of demand (read+write) hits
system.l2cache.demand_hits::.cpu.data         2743219                       # number of demand (read+write) hits
system.l2cache.demand_hits::total             2760418                       # number of demand (read+write) hits
system.l2cache.overall_hits::.cpu.inst          17199                       # number of overall hits
system.l2cache.overall_hits::.cpu.data        2743219                       # number of overall hits
system.l2cache.overall_hits::total            2760418                       # number of overall hits
system.l2cache.demand_misses::.cpu.inst         38510                       # number of demand (read+write) misses
system.l2cache.demand_misses::.cpu.data        256731                       # number of demand (read+write) misses
system.l2cache.demand_misses::total            295241                       # number of demand (read+write) misses
system.l2cache.overall_misses::.cpu.inst        38510                       # number of overall misses
system.l2cache.overall_misses::.cpu.data       256731                       # number of overall misses
system.l2cache.overall_misses::total           295241                       # number of overall misses
system.l2cache.demand_miss_latency::.cpu.inst   3733810000                       # number of demand (read+write) miss cycles
system.l2cache.demand_miss_latency::.cpu.data  25446921000                       # number of demand (read+write) miss cycles
system.l2cache.demand_miss_latency::total  29180731000                       # number of demand (read+write) miss cycles
system.l2cache.overall_miss_latency::.cpu.inst   3733810000                       # number of overall miss cycles
system.l2cache.overall_miss_latency::.cpu.data  25446921000                       # number of overall miss cycles
system.l2cache.overall_miss_latency::total  29180731000                       # number of overall miss cycles
system.l2cache.demand_accesses::.cpu.inst        55709                       # number of demand (read+write) accesses
system.l2cache.demand_accesses::.cpu.data      2999950                       # number of demand (read+write) accesses
system.l2cache.demand_accesses::total         3055659                       # number of demand (read+write) accesses
system.l2cache.overall_accesses::.cpu.inst        55709                       # number of overall (read+write) accesses
system.l2cache.overall_accesses::.cpu.data      2999950                       # number of overall (read+write) accesses
system.l2cache.overall_accesses::total        3055659                       # number of overall (read+write) accesses
system.l2cache.demand_miss_rate::.cpu.inst     0.691271                       # miss rate for demand accesses
system.l2cache.demand_miss_rate::.cpu.data     0.085578                       # miss rate for demand accesses
system.l2cache.demand_miss_rate::total       0.096621                       # miss rate for demand accesses
system.l2cache.overall_miss_rate::.cpu.inst     0.691271                       # miss rate for overall accesses
system.l2cache.overall_miss_rate::.cpu.data     0.085578                       # miss rate for overall accesses
system.l2cache.overall_miss_rate::total      0.096621                       # miss rate for overall accesses
system.l2cache.demand_avg_miss_latency::.cpu.inst 96956.894313                       # average overall miss latency
system.l2cache.demand_avg_miss_latency::.cpu.data 99119.003938                       # average overall miss latency
system.l2cache.demand_avg_miss_latency::total 98836.987410                       # average overall miss latency
system.l2cache.overall_avg_miss_latency::.cpu.inst 96956.894313                       # average overall miss latency
system.l2cache.overall_avg_miss_latency::.cpu.data 99119.003938                       # average overall miss latency
system.l2cache.overall_avg_miss_latency::total 98836.987410                       # average overall miss latency
system.l2cache.blocked_cycles::no_mshrs             0                       # number of cycles access was blocked
system.l2cache.blocked_cycles::no_targets            0                       # number of cycles access was blocked
system.l2cache.blocked::no_mshrs                    0                       # number of cycles access was blocked
system.l2cache.blocked::no_targets                  0                       # number of cycles access was blocked
system.l2cache.avg_blocked_cycles::no_mshrs          nan                       # average number of cycles each access was blocked
system.l2cache.avg_blocked_cycles::no_targets          nan                       # average number of cycles each access was blocked
system.l2cache.writebacks::.writebacks         145933                       # number of writebacks
system.l2cache.writebacks::total               145933                       # number of writebacks
system.l2cache.demand_mshr_misses::.cpu.inst        38510                       # number of demand (read+write) MSHR misses
system.l2cache.demand_mshr_misses::.cpu.data       256731                       # number of demand (read+write) MSHR misses
system.l2cache.demand_mshr_misses::total       295241                       # number of demand (read+write) MSHR misses
system.l2cache.overall_mshr_misses::.cpu.inst        38510                       # number of overall MSHR misses
system.l2cache.overall_mshr_misses::.cpu.data       256731                       # number of overall MSHR misses
system.l2cache.overall_mshr_misses::total       295241                       # number of overall MSHR misses
system.l2cache.demand_mshr_miss_latency::.cpu.inst   2963610000                       # number of demand (read+write) MSHR miss cycles
system.l2cache.demand_mshr_miss_latency::.cpu.data  20312301000                       # number of demand (read+write) MSHR miss cycles
system.l2cache.demand_mshr_miss_latency::total  23275911000                       # number of demand (read+write) MSHR miss cycles
system.l2cache.overall_mshr_miss_latency::.cpu.inst   2963610000                       # number of overall MSHR miss cycles
system.l2cache.overall_mshr_miss_latency::.cpu.data  20312301000                       # number of overall MSHR miss cycles
system.l2cache.overall_mshr_miss_latency::total  23275911000                       # number of overall MSHR miss cycles
system.l2cache.demand_mshr_miss_rate::.cpu.inst     0.691271                       # mshr miss rate for demand accesses
system.l2cache.demand_mshr_miss_rate::.cpu.data     0.085578                       # mshr miss rate for demand accesses
system.l2cache.demand_mshr_miss_rate::total     0.096621                       # mshr miss rate for demand accesses
system.l2cache.overall_mshr_miss_rate::.cpu.inst     0.691271                       # mshr miss rate for overall accesses
system.l2cache.overall_mshr_miss_rate::.cpu.data     0.085578                       # mshr miss rate for overall accesses
system.l2cache.overall_mshr_miss_rate::total     0.096621                       # mshr miss rate for overall accesses
system.l2cache.demand_avg_mshr_miss_latency::.cpu.inst 76956.894313                       # average overall mshr miss latency
system.l2cache.demand_avg_mshr_miss_latency::.cpu.data 79119.003938                       # average overall mshr miss latency
system.l2cache.demand_avg_mshr_miss_latency::total 78836.987410                       # average overall mshr miss latency
system.l2cache.overall_avg_mshr_miss_latency::.cpu.inst 76956.894313                       # average overall mshr miss latency
system.l2cache.overall_avg_mshr_miss_latency::.cpu.data 79119.003938                       # average overall mshr miss latency
system.l2cache.overall_avg_mshr_miss_latency::total 78836.987410                       # average overall mshr miss latency
system.l2cache.replacements                    289749                       # number of replacements
system.l2cache.WritebackDirty_hits::.writebacks      2769898                       # number of WritebackDirty hits
system.l2cache.WritebackDirty_hits::total      2769898                       # number of WritebackDirty hits
system.l2cache.WritebackDirty_misses::.writebacks           20                       # number of WritebackDirty misses
system.l2cache.WritebackDirty_misses::total           20                       # number of WritebackDirty misses
system.l2cache.WritebackDirty_accesses::.writebacks      2769918                       # number of WritebackDirty accesses(hits+misses)
system.l2cache.WritebackDirty_accesses::total      2769918                       # number of WritebackDirty accesses(hits+misses)
system.l2cache.WritebackDirty_miss_rate::.writebacks     0.000007                       # miss rate for WritebackDirty accesses
system.l2cache.WritebackDirty_miss_rate::total     0.000007                       # miss rate for WritebackDirty accesses
system.l2cache.WritebackDirty_mshr_misses::.writebacks           20                       # number of WritebackDirty MSHR misses
system.l2cache.WritebackDirty_mshr_misses::total           20                       # number of WritebackDirty MSHR misses
system.l2cache.WritebackDirty_mshr_miss_rate::.writebacks     0.000007                       # mshr miss rate for WritebackDirty accesses
system.l2cache.WritebackDirty_mshr_miss_rate::total     0.000007                       # mshr miss rate for WritebackDirty accesses
system.l2cache.CleanEvict_mshr_misses::.writebacks        20064                       # number of CleanEvict MSHR misses
system.l2cache.CleanEvict_mshr_misses::total        20064                       # number of CleanEvict MSHR misses
system.l2cache.CleanEvict_mshr_miss_rate::.writebacks          inf                       # mshr miss rate for CleanEvict accesses
system.l2cache.CleanEvict_mshr_miss_rate::total          inf                       # mshr miss rate for CleanEvict accesses
system.l2cache.ReadExReq_hits::.cpu.data      1000118                       # number of ReadExReq hits
system.l2cache.ReadExReq_hits::total          1000118                       # number of ReadExReq hits
system.l2cache.ReadExReq_misses::.cpu.data       115546                       # number of ReadExReq misses
system.l2cache.ReadExReq_misses::total         115546                       # number of ReadExReq misses
system.l2cache.ReadExReq_miss_latency::.cpu.data  11432638000                       # number of ReadExReq miss cycles
system.l2cache.ReadExReq_miss_latency::total  11432638000                       # number of ReadExReq miss cycles
system.l2cache.ReadExReq_accesses::.cpu.data      1115664                       # number of ReadExReq accesses(hits+misses)
system.l2cache.ReadExReq_accesses::total      1115664                       # number of ReadExReq accesses(hits+misses)
system.l2cache.ReadExReq_miss_rate::.cpu.data     0.103567                       # miss rate for ReadExReq accesses
system.l2cache.ReadExReq_miss_rate::total     0.103567                       # miss rate for ReadExReq accesses
system.l2cache.ReadExReq_avg_miss_latency::.cpu.data 98944.472331                       # average ReadExReq miss latency
system.l2cache.ReadExReq_avg_miss_latency::total 98944.472331                       # average ReadExReq miss latency
system.l2cache.ReadExReq_mshr_misses::.cpu.data       115546                       # number of ReadExReq MSHR misses
system.l2cache.ReadExReq_mshr_misses::total       115546                       # number of ReadExReq MSHR misses
system.l2cache.ReadExReq_mshr_miss_latency::.cpu.data   9121718000                       # number of ReadExReq MSHR miss cycles
system.l2cache.ReadExReq_mshr_miss_latency::total   9121718000                       # number of ReadExReq MSHR miss cycles
system.l2cache.ReadExReq_mshr_miss_rate::.cpu.data     0.103567                       # mshr miss rate for ReadExReq accesses
system.l2cache.ReadExReq_mshr_miss_rate::total     0.103567                       # mshr miss rate for ReadExReq accesses
system.l2cache.ReadExReq_avg_mshr_miss_latency::.cpu.data 78944.472331                       # average ReadExReq mshr miss latency
system.l2cache.ReadExReq_avg_mshr_miss_latency::total 78944.472331                       # average ReadExReq mshr miss latency
system.l2cache.ReadSharedReq_hits::.cpu.inst        17199                       # number of ReadSharedReq hits
system.l2cache.ReadSharedReq_hits::.cpu.data      1743101                       # number of ReadSharedReq hits
system.l2cache.ReadSharedReq_hits::total      1760300                       # number of ReadSharedReq hits
system.l2cache.ReadSharedReq_misses::.cpu.inst        38510                       # number of ReadSharedReq misses
system.l2cache.ReadSharedReq_misses::.cpu.data       141185                       # number of ReadSharedReq misses
system.l2cache.ReadSharedReq_misses::total       179695                       # number of ReadSharedReq misses
system.l2cache.ReadSharedReq_miss_latency::.cpu.inst   3733810000                       # number of ReadSharedReq miss cycles
system.l2cache.ReadSharedReq_miss_latency::.cpu.data  14014283000                       # number of ReadSharedReq miss cycles
system.l2cache.ReadSharedReq_miss_latency::total  17748093000                       # number of ReadSharedReq miss cycles
system.l2cache.ReadSharedReq_accesses::.cpu.inst        55709                       # number of ReadSharedReq accesses(hits+misses)
system.l2cache.ReadSharedReq_accesses::.cpu.data      1884286                       # number of ReadSharedReq accesses(hits+misses)
system.l2cache.ReadSharedReq_accesses::total      1939995                       # number of ReadSharedReq accesses(hits+misses)
system.l2cache.ReadSharedReq_miss_rate::.cpu.inst     0.691271                       # miss rate for ReadSharedReq accesses
system.l2cache.ReadSharedReq_miss_rate::.cpu.data     0.074928                       # miss rate for ReadSharedReq accesses
system.l2cache.ReadSharedReq_miss_rate::total     0.092627                       # miss rate for ReadSharedReq accesses
system.l2cache.ReadSharedReq_avg_miss_latency::.cpu.inst 96956.894313                       # average ReadSharedReq miss latency
system.l2cache.ReadSharedReq_avg_miss_latency::.cpu.data 99261.840847                       # average ReadSharedReq miss latency
system.l2cache.ReadSharedReq_avg_miss_latency::total 98767.873341                       # average ReadSharedReq miss latency
system.l2cache.ReadSharedReq_mshr_misses::.cpu.inst        38510                       # number of ReadSharedReq MSHR misses
system.l2cache.ReadSharedReq_mshr_misses::.cpu.data       141185                       # number of ReadSharedReq MSHR misses
system.l2cache.ReadSharedReq_mshr_misses::total       179695                       # number of ReadSharedReq MSHR misses
system.l2cache.ReadSharedReq_mshr_miss_latency::.cpu.inst   2963610000                       # number of ReadSharedReq MSHR miss cycles
system.l2cache.ReadSharedReq_mshr_miss_latency::.cpu.data  11190583000                       # number of ReadSharedReq MSHR miss cycles
system.l2cache.ReadSharedReq_mshr_miss_latency::total  14154193000                       # number of ReadSharedReq MSHR miss cycles
system.l2cache.ReadSharedReq_mshr_miss_rate::.cpu.inst     0.691271                       # mshr miss rate for ReadSharedReq accesses
system.l2cache.ReadSharedReq_mshr_miss_rate::.cpu.data     0.074928                       # mshr miss rate for ReadSharedReq accesses
system.l2cache.ReadSharedReq_mshr_miss_rate::total     0.092627                       # mshr miss rate for ReadSharedReq accesses
system.l2cache.ReadSharedReq_avg_mshr_miss_latency::.cpu.inst 76956.894313                       # average ReadSharedReq mshr miss latency
system.l2cache.ReadSharedReq_avg_mshr_miss_latency::.cpu.data 79261.840847                       # average ReadSharedReq mshr miss latency
system.l2cache.ReadSharedReq_avg_mshr_miss_latency::total 78767.873341                       # average ReadSharedReq mshr miss latency
system.l2cache.power_state.pwrStateResidencyTicks::UNDEFINED 756114703000                       # Cumulative time (in ticks) in various power states
system.l2cache.replacement_policy.totalBypasses         2866                       # Total number of cache bypasses
system.l2cache.replacement_policy.effectiveBypasses          253                       # Bypasses that correctly skipped non-reused blocks
system.l2cache.replacement_policy.ineffectiveBypasses         1228                       # Bypasses that incorrectly skipped requested blocks
system.l2cache.replacement_policy.virtualEffectiveBypasses         1726                       # Virtual bypasses correctly predicting non-reused blocks
system.l2cache.replacement_policy.virtualIneffectiveBypasses        11670                       # Virtual bypasses incorrectly predicting requested blocks
system.l2cache.tags.tagsinuse             4085.021038                       # Cycle average of tags in use
system.l2cache.tags.total_refs                6087108                       # Total number of references to valid blocks.
system.l2cache.tags.sampled_refs               293845                       # Sample count of references to valid blocks.
system.l2cache.tags.avg_refs                20.715370                       # Average number of references to valid blocks.
system.l2cache.tags.warmup_cycle                86000                       # Cycle when the warmup percentage was hit.
system.l2cache.tags.occ_blocks::.writebacks    25.182780                       # Average occupied blocks per requestor
system.l2cache.tags.occ_blocks::.cpu.inst   295.056907                       # Average occupied blocks per requestor
system.l2cache.tags.occ_blocks::.cpu.data  3764.781352                       # Average occupied blocks per requestor
system.l2cache.tags.occ_percent::.writebacks     0.006148                       # Average percentage of cache occupancy
system.l2cache.tags.occ_percent::.cpu.inst     0.072035                       # Average percentage of cache occupancy
system.l2cache.tags.occ_percent::.cpu.data     0.919136                       # Average percentage of cache occupancy
system.l2cache.tags.occ_percent::total       0.997320                       # Average percentage of cache occupancy
system.l2cache.tags.occ_task_id_blocks::1024         4096                       # Occupied blocks per task id
system.l2cache.tags.age_task_id_blocks_1024::0           57                       # Occupied blocks per task id
system.l2cache.tags.age_task_id_blocks_1024::1          138                       # Occupied blocks per task id
system.l2cache.tags.age_task_id_blocks_1024::2          735                       # Occupied blocks per task id
system.l2cache.tags.age_task_id_blocks_1024::3         2148                       # Occupied blocks per task id
system.l2cache.tags.age_task_id_blocks_1024::4         1018                       # Occupied blocks per task id
system.l2cache.tags.occ_task_id_percent::1024            1                       # Percentage of cache occupancy per task id
system.l2cache.tags.tag_accesses             49174149                       # Number of tag accesses
system.l2cache.tags.data_accesses            49174149                       # Number of data accesses
system.l2cache.tags.power_state.pwrStateResidencyTicks::UNDEFINED 756114703000                       # Cumulative time (in ticks) in various power states
system.mem_ctrl.avgPriority_.writebacks::samples    145953.00                       # Average QoS priority value for accepted requests
system.mem_ctrl.avgPriority_.cpu.inst::samples     38510.00                       # Average QoS priority value for accepted requests
system.mem_ctrl.avgPriority_.cpu.data::samples    253375.00                       # Average QoS priority value for accepted requests
system.mem_ctrl.priorityMinLatency       0.000000018750                       # per QoS priority minimum request to response latency (s)
system.mem_ctrl.priorityMaxLatency       0.009283964500                       # per QoS priority maximum request to response latency (s)
system.mem_ctrl.numReadWriteTurnArounds          8309                       # Number of turnarounds from READ to WRITE
system.mem_ctrl.numWriteReadTurnArounds          8309                       # Number of turnarounds from WRITE to READ
system.mem_ctrl.numStayReadState               920916                       # Number of times bus staying in READ state
system.mem_ctrl.numStayWriteState              137788                       # Number of times bus staying in WRITE state
system.mem_ctrl.readReqs                       295241                       # Number of read requests accepted
system.mem_ctrl.writeReqs                      145953                       # Number of write requests accepted
system.mem_ctrl.readBursts                     295241                       # Number of controller read bursts, including those serviced by the write queue
system.mem_ctrl.writeBursts                    145953                       # Number of controller write bursts, including those merged in the write queue
system.mem_ctrl.servicedByWrQ                    3356                       # Number of controller read bursts serviced by the write queue
system.mem_ctrl.mergedWrBursts                      0                       # Number of controller write bursts merged with an existing one
system.mem_ctrl.neitherReadNorWriteReqs             0                       # Number of requests that are neither read nor write
system.mem_ctrl.avgRdQLen                        1.00                       # Average read queue length when enqueuing
system.mem_ctrl.avgWrQLen                       24.40                       # Average write queue length when enqueuing
system.mem_ctrl.numRdRetry                          0                       # Number of times read queue was full causing retry
system.mem_ctrl.numWrRetry                          0                       # Number of times write queue was full causing retry
system.mem_ctrl.readPktSize::0                      0                       # Read request sizes (log2)
system.mem_ctrl.readPktSize::1                      0                       # Read request sizes (log2)
system.mem_ctrl.readPktSize::2                      0                       # Read request sizes (log2)
system.mem_ctrl.readPktSize::3                      0                       # Read request sizes (log2)
system.mem_ctrl.readPktSize::4                      0                       # Read request sizes (log2)
system.mem_ctrl.readPktSize::5                      0                       # Read request sizes (log2)
system.mem_ctrl.readPktSize::6                 295241                       # Read request sizes (log2)
system.mem_ctrl.writePktSize::0                     0                       # Write request sizes (log2)
system.mem_ctrl.writePktSize::1                     0                       # Write request sizes (log2)
system.mem_ctrl.writePktSize::2                     0                       # Write request sizes (log2)
system.mem_ctrl.writePktSize::3                     0                       # Write request sizes (log2)
system.mem_ctrl.writePktSize::4                     0                       # Write request sizes (log2)
system.mem_ctrl.writePktSize::5                     0                       # Write request sizes (log2)
system.mem_ctrl.writePktSize::6                145953                       # Write request sizes (log2)
system.mem_ctrl.rdQLenPdf::0                   291883                       # What read queue length does an incoming req see
system.mem_ctrl.rdQLenPdf::1                        2                       # What read queue length does an incoming req see
system.mem_ctrl.rdQLenPdf::2                        0                       # What read queue length does an incoming req see
system.mem_ctrl.rdQLenPdf::3                        0                       # What read queue length does an incoming req see
system.mem_ctrl.rdQLenPdf::4                        0                       # What read queue length does an incoming req see
system.mem_ctrl.rdQLenPdf::5                        0                       # What read queue length does an incoming req see
system.mem_ctrl.rdQLenPdf::6                        0                       # What read queue length does an incoming req see
system.mem_ctrl.rdQLenPdf::7                        0                       # What read queue length does an incoming req see
system.mem_ctrl.rdQLenPdf::8                        0                       # What read queue length does an incoming req see
system.mem_ctrl.rdQLenPdf::9                        0                       # What read queue length does an incoming req see
system.mem_ctrl.rdQLenPdf::10                       0                       # What read queue length does an incoming req see
system.mem_ctrl.rdQLenPdf::11                       0                       # What read queue length does an incoming req see
system.mem_ctrl.rdQLenPdf::12                       0                       # What read queue length does an incoming req see
system.mem_ctrl.rdQLenPdf::13                       0                       # What read queue length does an incoming req see
system.mem_ctrl.rdQLenPdf::14                       0                       # What read queue length does an incoming req see
system.mem_ctrl.rdQLenPdf::15                       0                       # What read queue length does an incoming req see
system.mem_ctrl.rdQLenPdf::16                       0                       # What read queue length does an incoming req see
system.mem_ctrl.rdQLenPdf::17                       0                       # What read queue length does an incoming req see
system.mem_ctrl.rdQLenPdf::18                       0                       # What read queue length does an incoming req see
system.mem_ctrl.rdQLenPdf::19                       0                       # What read queue length does an incoming req see
system.mem_ctrl.rdQLenPdf::20                       0                       # What read queue length does an incoming req see
system.mem_ctrl.rdQLenPdf::21                       0                       # What read queue length does an incoming req see
system.mem_ctrl.rdQLenPdf::22                       0                       # What read queue length does an incoming req see
system.mem_ctrl.rdQLenPdf::23                       0                       # What read queue length does an incoming req see
system.mem_ctrl.rdQLenPdf::24                       0                       # What read queue length does an incoming req see
system.mem_ctrl.rdQLenPdf::25                       0                       # What read queue length does an incoming req see
system.mem_ctrl.rdQLenPdf::26                       0                       # What read queue length does an incoming req see
system.mem_ctrl.rdQLenPdf::27                       0                       # What read queue length does an incoming req see
system.mem_ctrl.rdQLenPdf::28                       0                       # What read queue length does an incoming req see
system.mem_ctrl.rdQLenPdf::29                       0                       # What read queue length does an incoming req see
system.mem_ctrl.rdQLenPdf::30                       0                       # What read queue length does an incoming req see
system.mem_ctrl.rdQLenPdf::31                       0                       # What read queue length does an incoming req see
system.mem_ctrl.wrQLenPdf::0                        1                       # What write queue length does an incoming req see
system.mem_ctrl.wrQLenPdf::1                        1                       # What write queue length does an incoming req see
system.mem_ctrl.wrQLenPdf::2                        1                       # What write queue length does an incoming req see
system.mem_ctrl.wrQLenPdf::3                        1                       # What write queue length does an incoming req see
system.mem_ctrl.wrQLenPdf::4                        1                       # What write queue length does an incoming req see
system.mem_ctrl.wrQLenPdf::5                        1                       # What write queue length does an incoming req see
system.mem_ctrl.wrQLenPdf::6                        1                       # What write queue length does an incoming req see
system.mem_ctrl.wrQLenPdf::7                        1                       # What write queue length does an incoming req see
system.mem_ctrl.wrQLenPdf::8                        1                       # What write queue length does an incoming req see
system.mem_ctrl.wrQLenPdf::9                        1                       # What write queue length does an incoming req see
system.mem_ctrl.wrQLenPdf::10                       1                       # What write queue length does an incoming req see
system.mem_ctrl.wrQLenPdf::11                       1                       # What write queue length does an incoming req see
system.mem_ctrl.wrQLenPdf::12                       1                       # What write queue length does an incoming req see
system.mem_ctrl.wrQLenPdf::13                       1                       # What write queue length does an incoming req see
system.mem_ctrl.wrQLenPdf::14                       1                       # What write queue length does an incoming req see
system.mem_ctrl.wrQLenPdf::15                    6239                       # What write queue length does an incoming req see
system.mem_ctrl.wrQLenPdf::16                    6735                       # What write queue length does an incoming req see
system.mem_ctrl.wrQLenPdf::17                    8316                       # What write queue length does an incoming req see
system.mem_ctrl.wrQLenPdf::18                    8312                       # What write queue length does an incoming req see
system.mem_ctrl.wrQLenPdf::19                    8309                       # What write queue length does an incoming req see
system.mem_ctrl.wrQLenPdf::20                    8309                       # What write queue length does an incoming req see
system.mem_ctrl.wrQLenPdf::21                    8316                       # What write queue length does an incoming req see
system.mem_ctrl.wrQLenPdf::22                    8309                       # What write queue length does an incoming req see
system.mem_ctrl.wrQLenPdf::23                    8311                       # What write queue length does an incoming req see
system.mem_ctrl.wrQLenPdf::24                    8310                       # What write queue length does an incoming req see
system.mem_ctrl.wrQLenPdf::25                    8309                       # What write queue length does an incoming req see
system.mem_ctrl.wrQLenPdf::26                    8309                       # What write queue length does an incoming req see
system.mem_ctrl.wrQLenPdf::27                    8309                       # What write queue length does an incoming req see
system.mem_ctrl.wrQLenPdf::28                    8309                       # What write queue length does an incoming req see
system.mem_ctrl.wrQLenPdf::29                    8309                       # What write queue length does an incoming req see
system.mem_ctrl.wrQLenPdf::30                    8309                       # What write queue length does an incoming req see
system.mem_ctrl.wrQLenPdf::31                    8309                       # What write queue length does an incoming req see
system.mem_ctrl.wrQLenPdf::32                    8309                       # What write queue length does an incoming req see
system.mem_ctrl.wrQLenPdf::33                       0                       # What write queue length does an incoming req see
system.mem_ctrl.wrQLenPdf::34                       0                       # What write queue length does an incoming req see
system.mem_ctrl.wrQLenPdf::35                       0                       # What write queue length does an incoming req see
system.mem_ctrl.wrQLenPdf::36                       0                       # What write queue length does an incoming req see
system.mem_ctrl.wrQLenPdf::37                       0                       # What write queue length does an incoming req see
system.mem_ctrl.wrQLenPdf::38                       0                       # What write queue length does an incoming req see
system.mem_ctrl.wrQLenPdf::39                       0                       # What write queue length does an incoming req see
system.mem_ctrl.wrQLenPdf::40                       0                       # What write queue length does an incoming req see
system.mem_ctrl.wrQLenPdf::41                       0                       # What write queue length does an incoming req see
system.mem_ctrl.wrQLenPdf::42                       0                       # What write queue length does an incoming req see
system.mem_ctrl.wrQLenPdf::43                       0                       # What write queue length does an incoming req see
system.mem_ctrl.wrQLenPdf::44                       0                       # What write queue length does an incoming req see
system.mem_ctrl.wrQLenPdf::45                       0                       # What write queue length does an incoming req see
system.mem_ctrl.wrQLenPdf::46                       0                       # What write queue length does an incoming req see
system.mem_ctrl.wrQLenPdf::47                       0                       # What write queue length does an incoming req see
system.mem_ctrl.wrQLenPdf::48                       0                       # What write queue length does an incoming req see
system.mem_ctrl.wrQLenPdf::49                       0                       # What write queue length does an incoming req see
system.mem_ctrl.wrQLenPdf::50                       0                       # What write queue length does an incoming req see
system.mem_ctrl.wrQLenPdf::51                       0                       # What write queue length does an incoming req see
system.mem_ctrl.wrQLenPdf::52                       0                       # What write queue length does an incoming req see
system.mem_ctrl.wrQLenPdf::53                       0                       # What write queue length does an incoming req see
system.mem_ctrl.wrQLenPdf::54                       0                       # What write queue length does an incoming req see
system.mem_ctrl.wrQLenPdf::55                       0                       # What write queue length does an incoming req see
system.mem_ctrl.wrQLenPdf::56                       0                       # What write queue length does an incoming req see
system.mem_ctrl.wrQLenPdf::57                       0                       # What write queue length does an incoming req see
system.mem_ctrl.wrQLenPdf::58                       0                       # What write queue length does an incoming req see
system.mem_ctrl.wrQLenPdf::59                       0                       # What write queue length does an incoming req see
system.mem_ctrl.wrQLenPdf::60                       0                       # What write queue length does an incoming req see
system.mem_ctrl.wrQLenPdf::61                       0                       # What write queue length does an incoming req see
system.mem_ctrl.wrQLenPdf::62                       0                       # What write queue length does an incoming req see
system.mem_ctrl.wrQLenPdf::63                       0                       # What write queue length does an incoming req see
system.mem_ctrl.rdPerTurnAround::samples         8309                       # Reads before turning the bus around for writes
system.mem_ctrl.rdPerTurnAround::mean       35.128174                       # Reads before turning the bus around for writes
system.mem_ctrl.rdPerTurnAround::gmean      29.425832                       # Reads before turning the bus around for writes
system.mem_ctrl.rdPerTurnAround::stdev      55.058815                       # Reads before turning the bus around for writes
system.mem_ctrl.rdPerTurnAround::0-255           8308     99.99%     99.99% # Reads before turning the bus around for writes
system.mem_ctrl.rdPerTurnAround::4352-4607            1      0.01%    100.00% # Reads before turning the bus around for writes
system.mem_ctrl.rdPerTurnAround::total           8309                       # Reads before turning the bus around for writes
system.mem_ctrl.wrPerTurnAround::samples         8309                       # Writes before turning the bus around for reads
system.mem_ctrl.wrPerTurnAround::mean       17.563365                       # Writes before turning the bus around for reads
system.mem_ctrl.wrPerTurnAround::gmean      17.544678                       # Writes before turning the bus around for reads
system.mem_ctrl.wrPerTurnAround::stdev       0.793411                       # Writes before turning the bus around for reads
system.mem_ctrl.wrPerTurnAround::16              1575     18.96%     18.96% # Writes before turning the bus around for reads
system.mem_ctrl.wrPerTurnAround::17               496      5.97%     24.92% # Writes before turning the bus around for reads
system.mem_ctrl.wrPerTurnAround::18              6220     74.86%     99.78% # Writes before turning the bus around for reads
system.mem_ctrl.wrPerTurnAround::19                18      0.22%    100.00% # Writes before turning the bus around for reads
system.mem_ctrl.wrPerTurnAround::total           8309                       # Writes before turning the bus around for reads
system.mem_ctrl.bytesReadWrQ                   214784                       # Total number of bytes read from write queue
system.mem_ctrl.bytesReadSys                 18895424                       # Total read bytes from the system interface side
system.mem_ctrl.bytesWrittenSys               9340992                       # Total written bytes from the system interface side
system.mem_ctrl.avgRdBWSys                      24.99                       # Average system read bandwidth in MiByte/s
system.mem_ctrl.avgWrBWSys                      12.35                       # Average system write bandwidth in MiByte/s
system.mem_ctrl.totGap                   756114673000                       # Total gap between requests
system.mem_ctrl.avgGap                     1713791.83                       # Average gap between requests
system.mem_ctrl.requestorReadBytes::.cpu.inst      2464640                       # Per-requestor bytes read from memory
system.mem_ctrl.requestorReadBytes::.cpu.data     16216000                       # Per-requestor bytes read from memory
system.mem_ctrl.requestorWriteBytes::.writebacks      9339776                       # Per-requestor bytes write to memory
system.mem_ctrl.requestorReadRate::.cpu.inst 3259611.260330166668                       # Per-requestor bytes read from memory rate (Bytes/sec)
system.mem_ctrl.requestorReadRate::.cpu.data 21446481.513533003628                       # Per-requestor bytes read from memory rate (Bytes/sec)
system.mem_ctrl.requestorWriteRate::.writebacks 12352326.919372178614                       # Per-requestor bytes write to memory rate (Bytes/sec)
system.mem_ctrl.requestorReadAccesses::.cpu.inst        38510                       # Per-requestor read serviced memory accesses
system.mem_ctrl.requestorReadAccesses::.cpu.data       256731                       # Per-requestor read serviced memory accesses
system.mem_ctrl.requestorWriteAccesses::.writebacks       145953                       # Per-requestor write serviced memory accesses
system.mem_ctrl.requestorReadTotalLat::.cpu.inst    988658750                       # Per-requestor read total memory access latency
system.mem_ctrl.requestorReadTotalLat::.cpu.data   7168769500                       # Per-requestor read total memory access latency
system.mem_ctrl.requestorWriteTotalLat::.writebacks 17679890335500                       # Per-requestor write total memory access latency
system.mem_ctrl.requestorReadAvgLat::.cpu.inst     25672.78                       # Per-requestor read average memory access latency
system.mem_ctrl.requestorReadAvgLat::.cpu.data     27923.27                       # Per-requestor read average memory access latency
system.mem_ctrl.requestorWriteAvgLat::.writebacks 121134134.52                       # Per-requestor write average memory access latency
system.mem_ctrl.dram.bytes_read::.cpu.inst      2464640                       # Number of bytes read from this memory
system.mem_ctrl.dram.bytes_read::.cpu.data     16430784                       # Number of bytes read from this memory
system.mem_ctrl.dram.bytes_read::total       18895424                       # Number of bytes read from this memory
system.mem_ctrl.dram.bytes_inst_read::.cpu.inst      2464640                       # Number of instructions bytes read from this memory
system.mem_ctrl.dram.bytes_inst_read::total      2464640                       # Number of instructions bytes read from this memory
system.mem_ctrl.dram.bytes_written::.writebacks      9340992                       # Number of bytes written to this memory
system.mem_ctrl.dram.bytes_written::total      9340992                       # Number of bytes written to this memory
system.mem_ctrl.dram.num_reads::.cpu.inst        38510                       # Number of read requests responded to by this memory
system.mem_ctrl.dram.num_reads::.cpu.data       256731                       # Number of read requests responded to by this memory
system.mem_ctrl.dram.num_reads::total          295241                       # Number of read requests responded to by this memory
system.mem_ctrl.dram.num_writes::.writebacks       145953                       # Number of write requests responded to by this memory
system.mem_ctrl.dram.num_writes::total         145953                       # Number of write requests responded to by this memory
system.mem_ctrl.dram.bw_read::.cpu.inst       3259611                       # Total read bandwidth from this memory (bytes/s)
system.mem_ctrl.dram.bw_read::.cpu.data      21730544                       # Total read bandwidth from this memory (bytes/s)
system.mem_ctrl.dram.bw_read::total          24990155                       # Total read bandwidth from this memory (bytes/s)
system.mem_ctrl.dram.bw_inst_read::.cpu.inst      3259611                       # Instruction read bandwidth from this memory (bytes/s)
system.mem_ctrl.dram.bw_inst_read::total      3259611                       # Instruction read bandwidth from this memory (bytes/s)
system.mem_ctrl.dram.bw_write::.writebacks     12353935                       # Write bandwidth from this memory (bytes/s)
system.mem_ctrl.dram.bw_write::total         12353935                       # Write bandwidth from this memory (bytes/s)
system.mem_ctrl.dram.bw_total::.writebacks     12353935                       # Total bandwidth to/from this memory (bytes/s)
system.mem_ctrl.dram.bw_total::.cpu.inst      3259611                       # Total bandwidth to/from this memory (bytes/s)
system.mem_ctrl.dram.bw_total::.cpu.data     21730544                       # Total bandwidth to/from this memory (bytes/s)
system.mem_ctrl.dram.bw_total::total         37344091                       # Total bandwidth to/from this memory (bytes/s)
system.mem_ctrl.dram.readBursts                291885                       # Number of DRAM read bursts
system.mem_ctrl.dram.writeBursts               145934                       # Number of DRAM write bursts
system.mem_ctrl.dram.perBankRdBursts::0         11119                       # Per bank write bursts
system.mem_ctrl.dram.perBankRdBursts::1         16932                       # Per bank write bursts
system.mem_ctrl.dram.perBankRdBursts::2         15634                       # Per bank write bursts
system.mem_ctrl.dram.perBankRdBursts::3         19299                       # Per bank write bursts
system.mem_ctrl.dram.perBankRdBursts::4         11037                       # Per bank write bursts
system.mem_ctrl.dram.perBankRdBursts::5         24317                       # Per bank write bursts
system.mem_ctrl.dram.perBankRdBursts::6         26176                       # Per bank write bursts
system.mem_ctrl.dram.perBankRdBursts::7         20773                       # Per bank write bursts
system.mem_ctrl.dram.perBankRdBursts::8         15295                       # Per bank write bursts
system.mem_ctrl.dram.perBankRdBursts::9         24072                       # Per bank write bursts
system.mem_ctrl.dram.perBankRdBursts::10        22691                       # Per bank write bursts
system.mem_ctrl.dram.perBankRdBursts::11        25901                       # Per bank write bursts
system.mem_ctrl.dram.perBankRdBursts::12         6633                       # Per bank write bursts
system.mem_ctrl.dram.perBankRdBursts::13        13804                       # Per bank write bursts
system.mem_ctrl.dram.perBankRdBursts::14        22487                       # Per bank write bursts
system.mem_ctrl.dram.perBankRdBursts::15        15715                       # Per bank write bursts
system.mem_ctrl.dram.perBankWrBursts::0          3349                       # Per bank write bursts
system.mem_ctrl.dram.perBankWrBursts::1          7178                       # Per bank write bursts
system.mem_ctrl.dram.perBankWrBursts::2          7132                       # Per bank write bursts
system.mem_ctrl.dram.perBankWrBursts::3         10256                       # Per bank write bursts
system.mem_ctrl.dram.perBankWrBursts::4          2356                       # Per bank write bursts
system.mem_ctrl.dram.perBankWrBursts::5         11067                       # Per bank write bursts
system.mem_ctrl.dram.perBankWrBursts::6         12503                       # Per bank write bursts
system.mem_ctrl.dram.perBankWrBursts::7          8351                       # Per bank write bursts
system.mem_ctrl.dram.perBankWrBursts::8          4093                       # Per bank write bursts
system.mem_ctrl.dram.perBankWrBursts::9         13623                       # Per bank write bursts
system.mem_ctrl.dram.perBankWrBursts::10        14055                       # Per bank write bursts
system.mem_ctrl.dram.perBankWrBursts::11        12935                       # Per bank write bursts
system.mem_ctrl.dram.perBankWrBursts::12         4969                       # Per bank write bursts
system.mem_ctrl.dram.perBankWrBursts::13        10577                       # Per bank write bursts
system.mem_ctrl.dram.perBankWrBursts::14        16313                       # Per bank write bursts
system.mem_ctrl.dram.perBankWrBursts::15         7177                       # Per bank write bursts
system.mem_ctrl.dram.totQLat               2684584500                       # Total ticks spent queuing
system.mem_ctrl.dram.totBusLat             1459425000                       # Total ticks spent in databus transfers
system.mem_ctrl.dram.totMemAccLat          8157428250                       # Total ticks spent from burst creation until serviced by the DRAM
system.mem_ctrl.dram.avgQLat                  9197.40                       # Average queueing delay per DRAM burst
system.mem_ctrl.dram.avgBusLat                5000.00                       # Average bus latency per DRAM burst
system.mem_ctrl.dram.avgMemAccLat            27947.40                       # Average memory access latency per DRAM burst
system.mem_ctrl.dram.readRowHits               213888                       # Number of row buffer hits during reads
system.mem_ctrl.dram.writeRowHits              118762                       # Number of row buffer hits during writes
system.mem_ctrl.dram.readRowHitRate             73.28                       # Row buffer hit rate for reads
system.mem_ctrl.dram.writeRowHitRate            81.38                       # Row buffer hit rate for writes
system.mem_ctrl.dram.bytesPerActivate::samples       105158                       # Bytes accessed per row activation
system.mem_ctrl.dram.bytesPerActivate::mean   266.439453                       # Bytes accessed per row activation
system.mem_ctrl.dram.bytesPerActivate::gmean   176.644201                       # Bytes accessed per row activation
system.mem_ctrl.dram.bytesPerActivate::stdev   256.856186                       # Bytes accessed per row activation
system.mem_ctrl.dram.bytesPerActivate::0-127        35096     33.37%     33.37% # Bytes accessed per row activation
system.mem_ctrl.dram.bytesPerActivate::128-255        27992     26.62%     59.99% # Bytes accessed per row activation
system.mem_ctrl.dram.bytesPerActivate::256-383        12887     12.25%     72.25% # Bytes accessed per row activation
system.mem_ctrl.dram.bytesPerActivate::384-511        13235     12.59%     84.83% # Bytes accessed per row activation
system.mem_ctrl.dram.bytesPerActivate::512-639         4353      4.14%     88.97% # Bytes accessed per row activation
system.mem_ctrl.dram.bytesPerActivate::640-767         3217      3.06%     92.03% # Bytes accessed per row activation
system.mem_ctrl.dram.bytesPerActivate::768-895         2139      2.03%     94.07% # Bytes accessed per row activation
system.mem_ctrl.dram.bytesPerActivate::896-1023         1601      1.52%     95.59% # Bytes accessed per row activation
system.mem_ctrl.dram.bytesPerActivate::1024-1151         4638      4.41%    100.00% # Bytes accessed per row activation
system.mem_ctrl.dram.bytesPerActivate::total       105158                       # Bytes accessed per row activation
system.mem_ctrl.dram.bytesRead               18680640                       # Total number of bytes read from DRAM
system.mem_ctrl.dram.bytesWritten             9339776                       # Total number of bytes written to DRAM
system.mem_ctrl.dram.avgRdBW                24.706093                       # Average DRAM read bandwidth in MiBytes/s
system.mem_ctrl.dram.avgWrBW                12.352327                       # Average DRAM write bandwidth in MiBytes/s
system.mem_ctrl.dram.peakBW                  12800.00                       # Theoretical peak bandwidth in MiByte/s
system.mem_ctrl.dram.busUtil                     0.29                       # Data bus utilization in percentage
system.mem_ctrl.dram.busUtilRead                 0.19                       # Data bus utilization in percentage for reads
system.mem_ctrl.dram.busUtilWrite                0.10                       # Data bus utilization in percentage for writes
system.mem_ctrl.dram.pageHitRate                75.98                       # Row buffer hit rate, read and write combined
system.mem_ctrl.dram.power_state.pwrStateResidencyTicks::UNDEFINED 756114703000                       # Cumulative time (in ticks) in various power states
system.mem_ctrl.dram.rank0.actEnergy        289184280                       # Energy for activate commands per rank (pJ)
system.mem_ctrl.dram.rank0.preEnergy        153689910                       # Energy for precharge commands per rank (pJ)
system.mem_ctrl.dram.rank0.readEnergy      1037349180                       # Energy for read commands per rank (pJ)
system.mem_ctrl.dram.rank0.writeEnergy      324642240                       # Energy for write commands per rank (pJ)
system.mem_ctrl.dram.rank0.refreshEnergy 59686461120.000008                       # Energy for refresh commands per rank (pJ)
system.mem_ctrl.dram.rank0.actBackEnergy  57480713490                       # Energy for active background per rank (pJ)
system.mem_ctrl.dram.rank0.preBackEnergy 241943234880                       # Energy for precharge background per rank (pJ)
system.mem_ctrl.dram.rank0.actPowerDownEnergy            0                       # Energy for active power-down per rank (pJ)
system.mem_ctrl.dram.rank0.prePowerDownEnergy            0                       # Energy for precharge power-down per rank (pJ)
system.mem_ctrl.dram.rank0.selfRefreshEnergy            0                       # Energy for self refresh per rank (pJ)
system.mem_ctrl.dram.rank0.totalEnergy   360915275100                       # Total energy per rank (pJ)
system.mem_ctrl.dram.rank0.averagePower    477.328736                       # Core power per rank (mW)
system.mem_ctrl.dram.rank0.totalIdleTime            0                       # Total Idle time Per DRAM Rank
system.mem_ctrl.dram.rank0.pwrStateTime::IDLE 628459995000                       # Time in different power states
system.mem_ctrl.dram.rank0.pwrStateTime::REF  25248080000                       # Time in different power states
system.mem_ctrl.dram.rank0.pwrStateTime::SREF            0                       # Time in different power states
system.mem_ctrl.dram.rank0.pwrStateTime::PRE_PDN            0                       # Time in different power states
system.mem_ctrl.dram.rank0.pwrStateTime::ACT 102406628000                       # Time in different power states
system.mem_ctrl.dram.rank0.pwrStateTime::ACT_PDN            0                       # Time in different power states
system.mem_ctrl.dram.rank1.actEnergy        461722380                       # Energy for activate commands per rank (pJ)
system.mem_ctrl.dram.rank1.preEnergy        245384700                       # Energy for precharge commands per rank (pJ)
system.mem_ctrl.dram.rank1.readEnergy      1046709720                       # Energy for read commands per rank (pJ)
system.mem_ctrl.dram.rank1.writeEnergy      437133240                       # Energy for write commands per rank (pJ)
system.mem_ctrl.dram.rank1.refreshEnergy 59686461120.000008                       # Energy for refresh commands per rank (pJ)
system.mem_ctrl.dram.rank1.actBackEnergy  72108675930                       # Energy for active background per rank (pJ)
system.mem_ctrl.dram.rank1.preBackEnergy 229624950720                       # Energy for precharge background per rank (pJ)
system.mem_ctrl.dram.rank1.actPowerDownEnergy            0                       # Energy for active power-down per rank (pJ)
system.mem_ctrl.dram.rank1.prePowerDownEnergy            0                       # Energy for precharge power-down per rank (pJ)
system.mem_ctrl.dram.rank1.selfRefreshEnergy            0                       # Energy for self refresh per rank (pJ)
system.mem_ctrl.dram.rank1.totalEnergy   363611037810                       # Total energy per rank (pJ)
system.mem_ctrl.dram.rank1.averagePower    480.894018                       # Core power per rank (mW)
system.mem_ctrl.dram.rank1.totalIdleTime            0                       # Total Idle time Per DRAM Rank
system.mem_ctrl.dram.rank1.pwrStateTime::IDLE 596239335500                       # Time in different power states
system.mem_ctrl.dram.rank1.pwrStateTime::REF  25248080000                       # Time in different power states
system.mem_ctrl.dram.rank1.pwrStateTime::SREF            0                       # Time in different power states
system.mem_ctrl.dram.rank1.pwrStateTime::PRE_PDN            0                       # Time in different power states
system.mem_ctrl.dram.rank1.pwrStateTime::ACT 134627287500                       # Time in different power states
system.mem_ctrl.dram.rank1.pwrStateTime::ACT_PDN            0                       # Time in different power states
system.mem_ctrl.power_state.pwrStateResidencyTicks::UNDEFINED 756114703000                       # Cumulative time (in ticks) in various power states
system.membus.trans_dist::ReadResp             179695                       # Transaction distribution
system.membus.trans_dist::WritebackDirty       145953                       # Transaction distribution
system.membus.trans_dist::CleanEvict           145123                       # Transaction distribution
system.membus.trans_dist::ReadExReq            115546                       # Transaction distribution
system.membus.trans_dist::ReadExResp           115546                       # Transaction distribution
system.membus.trans_dist::ReadSharedReq        179695                       # Transaction distribution
system.membus.pkt_count_system.l2cache.mem_side_port::system.mem_ctrl.port       881558                       # Packet count per connected requestor and responder (bytes)
system.membus.pkt_count_system.l2cache.mem_side_port::total       881558                       # Packet count per connected requestor and responder (bytes)
system.membus.pkt_count::total                 881558                       # Packet count per connected requestor and responder (bytes)
system.membus.pkt_size_system.l2cache.mem_side_port::system.mem_ctrl.port     28236416                       # Cumulative packet size per connected requestor and responder (bytes)
system.membus.pkt_size_system.l2cache.mem_side_port::total     28236416                       # Cumulative packet size per connected requestor and responder (bytes)
system.membus.pkt_size::total                28236416                       # Cumulative packet size per connected requestor and responder (bytes)
system.membus.snoops                                0                       # Total snoops (count)
system.membus.snoopTraffic                          0                       # Total snoop traffic (bytes)
system.membus.snoop_fanout::samples            295241                       # Request fanout histogram
system.membus.snoop_fanout::mean                    0                       # Request fanout histogram
system.membus.snoop_fanout::stdev                   0                       # Request fanout histogram
system.membus.snoop_fanout::underflows              0      0.00%      0.00% # Request fanout histogram
system.membus.snoop_fanout::0                  295241    100.00%    100.00% # Request fanout histogram
system.membus.snoop_fanout::1                       0      0.00%    100.00% # Request fanout histogram
system.membus.snoop_fanout::overflows               0      0.00%    100.00% # Request fanout histogram
system.membus.snoop_fanout::min_value               0                       # Request fanout histogram
system.membus.snoop_fanout::max_value               0                       # Request fanout histogram
system.membus.snoop_fanout::total              295241                       # Request fanout histogram
system.membus.power_state.pwrStateResidencyTicks::UNDEFINED 756114703000                       # Cumulative time (in ticks) in various power states
system.membus.reqLayer2.occupancy          1170129000                       # Layer occupancy (ticks)
system.membus.reqLayer2.utilization               0.2                       # Layer utilization (%)
system.membus.respLayer0.occupancy         1570947250                       # Layer occupancy (ticks)
system.membus.respLayer0.utilization              0.2                       # Layer utilization (%)

---------- End Simulation Statistics   ----------
