
---------- Begin Simulation Statistics ----------
final_tick                               1239049007000                       # Number of ticks from beginning of simulation (restored from checkpoints and never reset)
host_inst_rate                                 466078                       # Simulator instruction rate (inst/s)
host_mem_usage                                 668996                       # Number of bytes of host memory used
host_op_rate                                   855312                       # Simulator op (including micro ops) rate (op/s)
host_seconds                                   637.62                       # Real time elapsed on the host
host_tick_rate                             1943238412                       # Simulator tick rate (ticks/s)
sim_freq                                 1000000000000                       # Frequency of simulated ticks
sim_insts                                   297181055                       # Number of instructions simulated
sim_ops                                     545364677                       # Number of ops (including micro ops) simulated
sim_seconds                                  1.239049                       # Number of seconds simulated
sim_ticks                                1239049007000                       # Number of ticks simulated
system.cpu.Branches                          49473282                       # Number of branches fetched
system.cpu.committedInsts                   297181055                       # Number of instructions committed
system.cpu.committedOps                     545364677                       # Number of ops (including micro ops) committed
system.cpu.idle_fraction                     0.000000                       # Percentage of idle cycles
system.cpu.not_idle_fraction                 1.000000                       # Percentage of non-idle cycles
system.cpu.numCycles                       1239049007                       # number of cpu cycles simulated
system.cpu.numWorkItemsCompleted                    0                       # number of work items this cpu completed
system.cpu.numWorkItemsStarted                      0                       # number of work items this cpu started
system.cpu.num_busy_cycles               1239049006.999000                       # Number of busy cycles
system.cpu.num_cc_register_reads            252086630                       # number of times the CC registers were read
system.cpu.num_cc_register_writes           180867077                       # number of times the CC registers were written
system.cpu.num_conditional_control_insts     49270104                       # number of instructions that are conditional controls
system.cpu.num_fp_alu_accesses              184508638                       # Number of float alu accesses
system.cpu.num_fp_insts                     184508638                       # number of float instructions
system.cpu.num_fp_register_reads            225216963                       # number of times the floating registers were read
system.cpu.num_fp_register_writes           180499653                       # number of times the floating registers were written
system.cpu.num_func_calls                       81596                       # number of times a function call or return occured
system.cpu.num_idle_cycles                   0.001000                       # Number of idle cycles
system.cpu.num_int_alu_accesses             435906752                       # Number of integer alu accesses
system.cpu.num_int_insts                    435906752                       # number of integer instructions
system.cpu.num_int_register_reads           778693271                       # number of times the integer registers were read
system.cpu.num_int_register_writes          309382795                       # number of times the integer registers were written
system.cpu.num_load_insts                   111390494                       # Number of load instructions
system.cpu.num_mem_refs                     116747172                       # number of memory refs
system.cpu.num_store_insts                    5356678                       # Number of store instructions
system.cpu.num_vec_alu_accesses                     0                       # Number of vector alu accesses
system.cpu.num_vec_insts                            0                       # number of vector instructions
system.cpu.num_vec_register_reads                   0                       # number of times the vector registers were read
system.cpu.num_vec_register_writes                  0                       # number of times the vector registers were written
system.cpu.op_class::No_OpClass                710629      0.13%      0.13% # Class of executed instruction
system.cpu.op_class::IntAlu                 322694352     59.17%     59.30% # Class of executed instruction
system.cpu.op_class::IntMult                    30102      0.01%     59.31% # Class of executed instruction
system.cpu.op_class::IntDiv                       630      0.00%     59.31% # Class of executed instruction
system.cpu.op_class::FloatAdd                33737834      6.19%     65.49% # Class of executed instruction
system.cpu.op_class::FloatCmp                       0      0.00%     65.49% # Class of executed instruction
system.cpu.op_class::FloatCvt                       0      0.00%     65.49% # Class of executed instruction
system.cpu.op_class::FloatMult                      0      0.00%     65.49% # Class of executed instruction
system.cpu.op_class::FloatMultAcc                   0      0.00%     65.49% # Class of executed instruction
system.cpu.op_class::FloatDiv                       0      0.00%     65.49% # Class of executed instruction
system.cpu.op_class::FloatMisc                      0      0.00%     65.49% # Class of executed instruction
system.cpu.op_class::FloatSqrt                      0      0.00%     65.49% # Class of executed instruction
system.cpu.op_class::SimdAdd                    76762      0.01%     65.51% # Class of executed instruction
system.cpu.op_class::SimdAddAcc                     0      0.00%     65.51% # Class of executed instruction
system.cpu.op_class::SimdAlu                    60252      0.01%     65.52% # Class of executed instruction
system.cpu.op_class::SimdCmp                       24      0.00%     65.52% # Class of executed instruction
system.cpu.op_class::SimdCvt                     1170      0.00%     65.52% # Class of executed instruction
system.cpu.op_class::SimdMisc                  125019      0.02%     65.54% # Class of executed instruction
system.cpu.op_class::SimdMult                       0      0.00%     65.54% # Class of executed instruction
system.cpu.op_class::SimdMultAcc                    0      0.00%     65.54% # Class of executed instruction
system.cpu.op_class::SimdShift                      0      0.00%     65.54% # Class of executed instruction
system.cpu.op_class::SimdShiftAcc                   0      0.00%     65.54% # Class of executed instruction
system.cpu.op_class::SimdDiv                        0      0.00%     65.54% # Class of executed instruction
system.cpu.op_class::SimdSqrt                       0      0.00%     65.54% # Class of executed instruction
system.cpu.op_class::SimdFloatAdd            35512541      6.51%     72.05% # Class of executed instruction
system.cpu.op_class::SimdFloatAlu                   0      0.00%     72.05% # Class of executed instruction
system.cpu.op_class::SimdFloatCmp                   0      0.00%     72.05% # Class of executed instruction
system.cpu.op_class::SimdFloatCvt              101637      0.02%     72.07% # Class of executed instruction
system.cpu.op_class::SimdFloatDiv                 835      0.00%     72.07% # Class of executed instruction
system.cpu.op_class::SimdFloatMisc                  0      0.00%     72.07% # Class of executed instruction
system.cpu.op_class::SimdFloatMult           35565797      6.52%     78.59% # Class of executed instruction
system.cpu.op_class::SimdFloatMultAcc               0      0.00%     78.59% # Class of executed instruction
system.cpu.op_class::SimdFloatSqrt                 32      0.00%     78.59% # Class of executed instruction
system.cpu.op_class::SimdReduceAdd                  0      0.00%     78.59% # Class of executed instruction
system.cpu.op_class::SimdReduceAlu                  0      0.00%     78.59% # Class of executed instruction
system.cpu.op_class::SimdReduceCmp                  0      0.00%     78.59% # Class of executed instruction
system.cpu.op_class::SimdFloatReduceAdd             0      0.00%     78.59% # Class of executed instruction
system.cpu.op_class::SimdFloatReduceCmp             0      0.00%     78.59% # Class of executed instruction
system.cpu.op_class::SimdAes                        0      0.00%     78.59% # Class of executed instruction
system.cpu.op_class::SimdAesMix                     0      0.00%     78.59% # Class of executed instruction
system.cpu.op_class::SimdSha1Hash                   0      0.00%     78.59% # Class of executed instruction
system.cpu.op_class::SimdSha1Hash2                  0      0.00%     78.59% # Class of executed instruction
system.cpu.op_class::SimdSha256Hash                 0      0.00%     78.59% # Class of executed instruction
system.cpu.op_class::SimdSha256Hash2                0      0.00%     78.59% # Class of executed instruction
system.cpu.op_class::SimdShaSigma2                  0      0.00%     78.59% # Class of executed instruction
system.cpu.op_class::SimdShaSigma3                  0      0.00%     78.59% # Class of executed instruction
system.cpu.op_class::SimdPredAlu                    0      0.00%     78.59% # Class of executed instruction
system.cpu.op_class::MemRead                 39670307      7.27%     85.87% # Class of executed instruction
system.cpu.op_class::MemWrite                 1421543      0.26%     86.13% # Class of executed instruction
system.cpu.op_class::FloatMemRead            71720187     13.15%     99.28% # Class of executed instruction
system.cpu.op_class::FloatMemWrite            3935135      0.72%    100.00% # Class of executed instruction
system.cpu.op_class::IprAccess                      0      0.00%    100.00% # Class of executed instruction
system.cpu.op_class::InstPrefetch                   0      0.00%    100.00% # Class of executed instruction
system.cpu.op_class::total                  545364788                       # Class of executed instruction
system.cpu.workload.numSyscalls                    87                       # Number of system calls
system.l2bus.snoop_filter.hit_multi_requests            0                       # Number of requests hitting in the snoop filter with multiple (>1) holders of the requested data.
system.l2bus.snoop_filter.hit_multi_snoops            0                       # Number of snoops hitting in the snoop filter with multiple (>1) holders of the requested data.
system.l2bus.snoop_filter.hit_single_requests      6626203                       # Number of requests hitting in the snoop filter with a single holder of the requested data.
system.l2bus.snoop_filter.hit_single_snoops        16006                       # Number of snoops hitting in the snoop filter with a single holder of the requested data.
system.l2bus.snoop_filter.tot_requests       13253686                       # Total number of requests made to the snoop filter.
system.l2bus.snoop_filter.tot_snoops            16006                       # Total number of snoops made to the snoop filter.
system.membus.snoop_filter.hit_multi_requests            0                       # Number of requests hitting in the snoop filter with multiple (>1) holders of the requested data.
system.membus.snoop_filter.hit_multi_snoops            0                       # Number of snoops hitting in the snoop filter with multiple (>1) holders of the requested data.
system.membus.snoop_filter.hit_single_requests       250346                       # Number of requests hitting in the snoop filter with a single holder of the requested data.
system.membus.snoop_filter.hit_single_snoops            0                       # Number of snoops hitting in the snoop filter with a single holder of the requested data.
system.membus.snoop_filter.tot_requests        517108                       # Total number of requests made to the snoop filter.
system.membus.snoop_filter.tot_snoops               0                       # Total number of snoops made to the snoop filter.
system.clk_domain.clock                          1000                       # Clock period in ticks
system.clk_domain.voltage_domain.voltage            1                       # Voltage in Volts
system.cpu.dcache.demand_hits::.cpu.data    110150283                       # number of demand (read+write) hits
system.cpu.dcache.demand_hits::total        110150283                       # number of demand (read+write) hits
system.cpu.dcache.overall_hits::.cpu.data    110150283                       # number of overall hits
system.cpu.dcache.overall_hits::total       110150283                       # number of overall hits
system.cpu.dcache.demand_misses::.cpu.data      6608747                       # number of demand (read+write) misses
system.cpu.dcache.demand_misses::total        6608747                       # number of demand (read+write) misses
system.cpu.dcache.overall_misses::.cpu.data      6608747                       # number of overall misses
system.cpu.dcache.overall_misses::total       6608747                       # number of overall misses
system.cpu.dcache.demand_miss_latency::.cpu.data 191254748000                       # number of demand (read+write) miss cycles
system.cpu.dcache.demand_miss_latency::total 191254748000                       # number of demand (read+write) miss cycles
system.cpu.dcache.overall_miss_latency::.cpu.data 191254748000                       # number of overall miss cycles
system.cpu.dcache.overall_miss_latency::total 191254748000                       # number of overall miss cycles
system.cpu.dcache.demand_accesses::.cpu.data    116759030                       # number of demand (read+write) accesses
system.cpu.dcache.demand_accesses::total    116759030                       # number of demand (read+write) accesses
system.cpu.dcache.overall_accesses::.cpu.data    116759030                       # number of overall (read+write) accesses
system.cpu.dcache.overall_accesses::total    116759030                       # number of overall (read+write) accesses
system.cpu.dcache.demand_miss_rate::.cpu.data     0.056602                       # miss rate for demand accesses
system.cpu.dcache.demand_miss_rate::total     0.056602                       # miss rate for demand accesses
system.cpu.dcache.overall_miss_rate::.cpu.data     0.056602                       # miss rate for overall accesses
system.cpu.dcache.overall_miss_rate::total     0.056602                       # miss rate for overall accesses
system.cpu.dcache.demand_avg_miss_latency::.cpu.data 28939.638331                       # average overall miss latency
system.cpu.dcache.demand_avg_miss_latency::total 28939.638331                       # average overall miss latency
system.cpu.dcache.overall_avg_miss_latency::.cpu.data 28939.638331                       # average overall miss latency
system.cpu.dcache.overall_avg_miss_latency::total 28939.638331                       # average overall miss latency
system.cpu.dcache.blocked_cycles::no_mshrs            0                       # number of cycles access was blocked
system.cpu.dcache.blocked_cycles::no_targets            0                       # number of cycles access was blocked
system.cpu.dcache.blocked::no_mshrs                 0                       # number of cycles access was blocked
system.cpu.dcache.blocked::no_targets               0                       # number of cycles access was blocked
system.cpu.dcache.avg_blocked_cycles::no_mshrs          nan                       # average number of cycles each access was blocked
system.cpu.dcache.avg_blocked_cycles::no_targets          nan                       # average number of cycles each access was blocked
system.cpu.dcache.writebacks::.writebacks      2874764                       # number of writebacks
system.cpu.dcache.writebacks::total           2874764                       # number of writebacks
system.cpu.dcache.demand_mshr_misses::.cpu.data      6608747                       # number of demand (read+write) MSHR misses
system.cpu.dcache.demand_mshr_misses::total      6608747                       # number of demand (read+write) MSHR misses
system.cpu.dcache.overall_mshr_misses::.cpu.data      6608747                       # number of overall MSHR misses
system.cpu.dcache.overall_mshr_misses::total      6608747                       # number of overall MSHR misses
system.cpu.dcache.demand_mshr_miss_latency::.cpu.data 178037254000                       # number of demand (read+write) MSHR miss cycles
system.cpu.dcache.demand_mshr_miss_latency::total 178037254000                       # number of demand (read+write) MSHR miss cycles
system.cpu.dcache.overall_mshr_miss_latency::.cpu.data 178037254000                       # number of overall MSHR miss cycles
system.cpu.dcache.overall_mshr_miss_latency::total 178037254000                       # number of overall MSHR miss cycles
system.cpu.dcache.demand_mshr_miss_rate::.cpu.data     0.056602                       # mshr miss rate for demand accesses
system.cpu.dcache.demand_mshr_miss_rate::total     0.056602                       # mshr miss rate for demand accesses
system.cpu.dcache.overall_mshr_miss_rate::.cpu.data     0.056602                       # mshr miss rate for overall accesses
system.cpu.dcache.overall_mshr_miss_rate::total     0.056602                       # mshr miss rate for overall accesses
system.cpu.dcache.demand_avg_mshr_miss_latency::.cpu.data 26939.638331                       # average overall mshr miss latency
system.cpu.dcache.demand_avg_mshr_miss_latency::total 26939.638331                       # average overall mshr miss latency
system.cpu.dcache.overall_avg_mshr_miss_latency::.cpu.data 26939.638331                       # average overall mshr miss latency
system.cpu.dcache.overall_avg_mshr_miss_latency::total 26939.638331                       # average overall mshr miss latency
system.cpu.dcache.replacements                6607723                       # number of replacements
system.cpu.dcache.ReadReq_hits::.cpu.data    104904701                       # number of ReadReq hits
system.cpu.dcache.ReadReq_hits::total       104904701                       # number of ReadReq hits
system.cpu.dcache.ReadReq_misses::.cpu.data      6490776                       # number of ReadReq misses
system.cpu.dcache.ReadReq_misses::total       6490776                       # number of ReadReq misses
system.cpu.dcache.ReadReq_miss_latency::.cpu.data 185942885000                       # number of ReadReq miss cycles
system.cpu.dcache.ReadReq_miss_latency::total 185942885000                       # number of ReadReq miss cycles
system.cpu.dcache.ReadReq_accesses::.cpu.data    111395477                       # number of ReadReq accesses(hits+misses)
system.cpu.dcache.ReadReq_accesses::total    111395477                       # number of ReadReq accesses(hits+misses)
system.cpu.dcache.ReadReq_miss_rate::.cpu.data     0.058268                       # miss rate for ReadReq accesses
system.cpu.dcache.ReadReq_miss_rate::total     0.058268                       # miss rate for ReadReq accesses
system.cpu.dcache.ReadReq_avg_miss_latency::.cpu.data 28647.250344                       # average ReadReq miss latency
system.cpu.dcache.ReadReq_avg_miss_latency::total 28647.250344                       # average ReadReq miss latency
system.cpu.dcache.ReadReq_mshr_misses::.cpu.data      6490776                       # number of ReadReq MSHR misses
system.cpu.dcache.ReadReq_mshr_misses::total      6490776                       # number of ReadReq MSHR misses
system.cpu.dcache.ReadReq_mshr_miss_latency::.cpu.data 172961333000                       # number of ReadReq MSHR miss cycles
system.cpu.dcache.ReadReq_mshr_miss_latency::total 172961333000                       # number of ReadReq MSHR miss cycles
system.cpu.dcache.ReadReq_mshr_miss_rate::.cpu.data     0.058268                       # mshr miss rate for ReadReq accesses
system.cpu.dcache.ReadReq_mshr_miss_rate::total     0.058268                       # mshr miss rate for ReadReq accesses
system.cpu.dcache.ReadReq_avg_mshr_miss_latency::.cpu.data 26647.250344                       # average ReadReq mshr miss latency
system.cpu.dcache.ReadReq_avg_mshr_miss_latency::total 26647.250344                       # average ReadReq mshr miss latency
system.cpu.dcache.WriteReq_hits::.cpu.data      5245582                       # number of WriteReq hits
system.cpu.dcache.WriteReq_hits::total        5245582                       # number of WriteReq hits
system.cpu.dcache.WriteReq_misses::.cpu.data       117971                       # number of WriteReq misses
system.cpu.dcache.WriteReq_misses::total       117971                       # number of WriteReq misses
system.cpu.dcache.WriteReq_miss_latency::.cpu.data   5311863000                       # number of WriteReq miss cycles
system.cpu.dcache.WriteReq_miss_latency::total   5311863000                       # number of WriteReq miss cycles
system.cpu.dcache.WriteReq_accesses::.cpu.data      5363553                       # number of WriteReq accesses(hits+misses)
system.cpu.dcache.WriteReq_accesses::total      5363553                       # number of WriteReq accesses(hits+misses)
system.cpu.dcache.WriteReq_miss_rate::.cpu.data     0.021995                       # miss rate for WriteReq accesses
system.cpu.dcache.WriteReq_miss_rate::total     0.021995                       # miss rate for WriteReq accesses
system.cpu.dcache.WriteReq_avg_miss_latency::.cpu.data 45026.854057                       # average WriteReq miss latency
system.cpu.dcache.WriteReq_avg_miss_latency::total 45026.854057                       # average WriteReq miss latency
system.cpu.dcache.WriteReq_mshr_misses::.cpu.data       117971                       # number of WriteReq MSHR misses
system.cpu.dcache.WriteReq_mshr_misses::total       117971                       # number of WriteReq MSHR misses
system.cpu.dcache.WriteReq_mshr_miss_latency::.cpu.data   5075921000                       # number of WriteReq MSHR miss cycles
system.cpu.dcache.WriteReq_mshr_miss_latency::total   5075921000                       # number of WriteReq MSHR miss cycles
system.cpu.dcache.WriteReq_mshr_miss_rate::.cpu.data     0.021995                       # mshr miss rate for WriteReq accesses
system.cpu.dcache.WriteReq_mshr_miss_rate::total     0.021995                       # mshr miss rate for WriteReq accesses
system.cpu.dcache.WriteReq_avg_mshr_miss_latency::.cpu.data 43026.854057                       # average WriteReq mshr miss latency
system.cpu.dcache.WriteReq_avg_mshr_miss_latency::total 43026.854057                       # average WriteReq mshr miss latency
system.cpu.dcache.power_state.pwrStateResidencyTicks::UNDEFINED 1239049007000                       # Cumulative time (in ticks) in various power states
system.cpu.dcache.tags.tagsinuse          1023.737901                       # Cycle average of tags in use
system.cpu.dcache.tags.total_refs           116759030                       # Total number of references to valid blocks.
system.cpu.dcache.tags.sampled_refs           6608747                       # Sample count of references to valid blocks.
system.cpu.dcache.tags.avg_refs             17.667348                       # Average number of references to valid blocks.
system.cpu.dcache.tags.warmup_cycle            224000                       # Cycle when the warmup percentage was hit.
system.cpu.dcache.tags.occ_blocks::.cpu.data  1023.737901                       # Average occupied blocks per requestor
system.cpu.dcache.tags.occ_percent::.cpu.data     0.999744                       # Average percentage of cache occupancy
system.cpu.dcache.tags.occ_percent::total     0.999744                       # Average percentage of cache occupancy
system.cpu.dcache.tags.occ_task_id_blocks::1024         1024                       # Occupied blocks per task id
system.cpu.dcache.tags.age_task_id_blocks_1024::0           28                       # Occupied blocks per task id
system.cpu.dcache.tags.age_task_id_blocks_1024::1          110                       # Occupied blocks per task id
system.cpu.dcache.tags.age_task_id_blocks_1024::2          806                       # Occupied blocks per task id
system.cpu.dcache.tags.age_task_id_blocks_1024::3           80                       # Occupied blocks per task id
system.cpu.dcache.tags.occ_task_id_percent::1024            1                       # Percentage of cache occupancy per task id
system.cpu.dcache.tags.tag_accesses         240126807                       # Number of tag accesses
system.cpu.dcache.tags.data_accesses        240126807                       # Number of data accesses
system.cpu.dcache.tags.power_state.pwrStateResidencyTicks::UNDEFINED 1239049007000                       # Cumulative time (in ticks) in various power states
system.cpu.dtb.rdAccesses                   111395478                       # TLB accesses on read requests
system.cpu.dtb.wrAccesses                     5363576                       # TLB accesses on write requests
system.cpu.dtb.rdMisses                        115974                       # TLB misses on read requests
system.cpu.dtb.wrMisses                          1462                       # TLB misses on write requests
system.cpu.dtb.walker.power_state.pwrStateResidencyTicks::UNDEFINED 1239049007000                       # Cumulative time (in ticks) in various power states
system.cpu.icache.demand_hits::.cpu.inst    413236159                       # number of demand (read+write) hits
system.cpu.icache.demand_hits::total        413236159                       # number of demand (read+write) hits
system.cpu.icache.overall_hits::.cpu.inst    413236159                       # number of overall hits
system.cpu.icache.overall_hits::total       413236159                       # number of overall hits
system.cpu.icache.demand_misses::.cpu.inst        18736                       # number of demand (read+write) misses
system.cpu.icache.demand_misses::total          18736                       # number of demand (read+write) misses
system.cpu.icache.overall_misses::.cpu.inst        18736                       # number of overall misses
system.cpu.icache.overall_misses::total         18736                       # number of overall misses
system.cpu.icache.demand_miss_latency::.cpu.inst   1050178000                       # number of demand (read+write) miss cycles
system.cpu.icache.demand_miss_latency::total   1050178000                       # number of demand (read+write) miss cycles
system.cpu.icache.overall_miss_latency::.cpu.inst   1050178000                       # number of overall miss cycles
system.cpu.icache.overall_miss_latency::total   1050178000                       # number of overall miss cycles
system.cpu.icache.demand_accesses::.cpu.inst    413254895                       # number of demand (read+write) accesses
system.cpu.icache.demand_accesses::total    413254895                       # number of demand (read+write) accesses
system.cpu.icache.overall_accesses::.cpu.inst    413254895                       # number of overall (read+write) accesses
system.cpu.icache.overall_accesses::total    413254895                       # number of overall (read+write) accesses
system.cpu.icache.demand_miss_rate::.cpu.inst     0.000045                       # miss rate for demand accesses
system.cpu.icache.demand_miss_rate::total     0.000045                       # miss rate for demand accesses
system.cpu.icache.overall_miss_rate::.cpu.inst     0.000045                       # miss rate for overall accesses
system.cpu.icache.overall_miss_rate::total     0.000045                       # miss rate for overall accesses
system.cpu.icache.demand_avg_miss_latency::.cpu.inst 56051.345004                       # average overall miss latency
system.cpu.icache.demand_avg_miss_latency::total 56051.345004                       # average overall miss latency
system.cpu.icache.overall_avg_miss_latency::.cpu.inst 56051.345004                       # average overall miss latency
system.cpu.icache.overall_avg_miss_latency::total 56051.345004                       # average overall miss latency
system.cpu.icache.blocked_cycles::no_mshrs            0                       # number of cycles access was blocked
system.cpu.icache.blocked_cycles::no_targets            0                       # number of cycles access was blocked
system.cpu.icache.blocked::no_mshrs                 0                       # number of cycles access was blocked
system.cpu.icache.blocked::no_targets               0                       # number of cycles access was blocked
system.cpu.icache.avg_blocked_cycles::no_mshrs          nan                       # average number of cycles each access was blocked
system.cpu.icache.avg_blocked_cycles::no_targets          nan                       # average number of cycles each access was blocked
system.cpu.icache.demand_mshr_misses::.cpu.inst        18736                       # number of demand (read+write) MSHR misses
system.cpu.icache.demand_mshr_misses::total        18736                       # number of demand (read+write) MSHR misses
system.cpu.icache.overall_mshr_misses::.cpu.inst        18736                       # number of overall MSHR misses
system.cpu.icache.overall_mshr_misses::total        18736                       # number of overall MSHR misses
system.cpu.icache.demand_mshr_miss_latency::.cpu.inst   1012706000                       # number of demand (read+write) MSHR miss cycles
system.cpu.icache.demand_mshr_miss_latency::total   1012706000                       # number of demand (read+write) MSHR miss cycles
system.cpu.icache.overall_mshr_miss_latency::.cpu.inst   1012706000                       # number of overall MSHR miss cycles
system.cpu.icache.overall_mshr_miss_latency::total   1012706000                       # number of overall MSHR miss cycles
system.cpu.icache.demand_mshr_miss_rate::.cpu.inst     0.000045                       # mshr miss rate for demand accesses
system.cpu.icache.demand_mshr_miss_rate::total     0.000045                       # mshr miss rate for demand accesses
system.cpu.icache.overall_mshr_miss_rate::.cpu.inst     0.000045                       # mshr miss rate for overall accesses
system.cpu.icache.overall_mshr_miss_rate::total     0.000045                       # mshr miss rate for overall accesses
system.cpu.icache.demand_avg_mshr_miss_latency::.cpu.inst 54051.345004                       # average overall mshr miss latency
system.cpu.icache.demand_avg_mshr_miss_latency::total 54051.345004                       # average overall mshr miss latency
system.cpu.icache.overall_avg_mshr_miss_latency::.cpu.inst 54051.345004                       # average overall mshr miss latency
system.cpu.icache.overall_avg_mshr_miss_latency::total 54051.345004                       # average overall mshr miss latency
system.cpu.icache.replacements                  18480                       # number of replacements
system.cpu.icache.ReadReq_hits::.cpu.inst    413236159                       # number of ReadReq hits
system.cpu.icache.ReadReq_hits::total       413236159                       # number of ReadReq hits
system.cpu.icache.ReadReq_misses::.cpu.inst        18736                       # number of ReadReq misses
system.cpu.icache.ReadReq_misses::total         18736                       # number of ReadReq misses
system.cpu.icache.ReadReq_miss_latency::.cpu.inst   1050178000                       # number of ReadReq miss cycles
system.cpu.icache.ReadReq_miss_latency::total   1050178000                       # number of ReadReq miss cycles
system.cpu.icache.ReadReq_accesses::.cpu.inst    413254895                       # number of ReadReq accesses(hits+misses)
system.cpu.icache.ReadReq_accesses::total    413254895                       # number of ReadReq accesses(hits+misses)
system.cpu.icache.ReadReq_miss_rate::.cpu.inst     0.000045                       # miss rate for ReadReq accesses
system.cpu.icache.ReadReq_miss_rate::total     0.000045                       # miss rate for ReadReq accesses
system.cpu.icache.ReadReq_avg_miss_latency::.cpu.inst 56051.345004                       # average ReadReq miss latency
system.cpu.icache.ReadReq_avg_miss_latency::total 56051.345004                       # average ReadReq miss latency
system.cpu.icache.ReadReq_mshr_misses::.cpu.inst        18736                       # number of ReadReq MSHR misses
system.cpu.icache.ReadReq_mshr_misses::total        18736                       # number of ReadReq MSHR misses
system.cpu.icache.ReadReq_mshr_miss_latency::.cpu.inst   1012706000                       # number of ReadReq MSHR miss cycles
system.cpu.icache.ReadReq_mshr_miss_latency::total   1012706000                       # number of ReadReq MSHR miss cycles
system.cpu.icache.ReadReq_mshr_miss_rate::.cpu.inst     0.000045                       # mshr miss rate for ReadReq accesses
system.cpu.icache.ReadReq_mshr_miss_rate::total     0.000045                       # mshr miss rate for ReadReq accesses
system.cpu.icache.ReadReq_avg_mshr_miss_latency::.cpu.inst 54051.345004                       # average ReadReq mshr miss latency
system.cpu.icache.ReadReq_avg_mshr_miss_latency::total 54051.345004                       # average ReadReq mshr miss latency
system.cpu.icache.power_state.pwrStateResidencyTicks::UNDEFINED 1239049007000                       # Cumulative time (in ticks) in various power states
system.cpu.icache.tags.tagsinuse           255.989416                       # Cycle average of tags in use
system.cpu.icache.tags.total_refs           413254895                       # Total number of references to valid blocks.
system.cpu.icache.tags.sampled_refs             18736                       # Sample count of references to valid blocks.
system.cpu.icache.tags.avg_refs          22056.730092                       # Average number of references to valid blocks.
system.cpu.icache.tags.warmup_cycle            107000                       # Cycle when the warmup percentage was hit.
system.cpu.icache.tags.occ_blocks::.cpu.inst   255.989416                       # Average occupied blocks per requestor
system.cpu.icache.tags.occ_percent::.cpu.inst     0.999959                       # Average percentage of cache occupancy
system.cpu.icache.tags.occ_percent::total     0.999959                       # Average percentage of cache occupancy
system.cpu.icache.tags.occ_task_id_blocks::1024          256                       # Occupied blocks per task id
system.cpu.icache.tags.age_task_id_blocks_1024::0           35                       # Occupied blocks per task id
system.cpu.icache.tags.age_task_id_blocks_1024::1          116                       # Occupied blocks per task id
system.cpu.icache.tags.age_task_id_blocks_1024::2           98                       # Occupied blocks per task id
system.cpu.icache.tags.age_task_id_blocks_1024::4            7                       # Occupied blocks per task id
system.cpu.icache.tags.occ_task_id_percent::1024            1                       # Percentage of cache occupancy per task id
system.cpu.icache.tags.tag_accesses         826528526                       # Number of tag accesses
system.cpu.icache.tags.data_accesses        826528526                       # Number of data accesses
system.cpu.icache.tags.power_state.pwrStateResidencyTicks::UNDEFINED 1239049007000                       # Cumulative time (in ticks) in various power states
system.cpu.interrupts.clk_domain.clock          16000                       # Clock period in ticks
system.cpu.itb.rdAccesses                           0                       # TLB accesses on read requests
system.cpu.itb.wrAccesses                   413254895                       # TLB accesses on write requests
system.cpu.itb.rdMisses                             0                       # TLB misses on read requests
system.cpu.itb.wrMisses                           110                       # TLB misses on write requests
system.cpu.itb.walker.power_state.pwrStateResidencyTicks::UNDEFINED 1239049007000                       # Cumulative time (in ticks) in various power states
system.cpu.power_state.pwrStateResidencyTicks::ON 1239049007000                       # Cumulative time (in ticks) in various power states
system.cpu.thread_0.numInsts                        0                       # Number of Instructions committed
system.cpu.thread_0.numOps                          0                       # Number of Ops committed
system.cpu.thread_0.numMemRefs                      0                       # Number of Memory References
system.l2bus.trans_dist::ReadResp             6509512                       # Transaction distribution
system.l2bus.trans_dist::WritebackDirty       2909601                       # Transaction distribution
system.l2bus.trans_dist::CleanEvict           3980761                       # Transaction distribution
system.l2bus.trans_dist::ReadExReq             117971                       # Transaction distribution
system.l2bus.trans_dist::ReadExResp            117971                       # Transaction distribution
system.l2bus.trans_dist::ReadSharedReq        6509512                       # Transaction distribution
system.l2bus.pkt_count_system.cpu.icache.mem_side_port::system.l2cache.cpu_side_port        55952                       # Packet count per connected requestor and responder (bytes)
system.l2bus.pkt_count_system.cpu.dcache.mem_side_port::system.l2cache.cpu_side_port     19825217                       # Packet count per connected requestor and responder (bytes)
system.l2bus.pkt_count::total                19881169                       # Packet count per connected requestor and responder (bytes)
system.l2bus.pkt_size_system.cpu.icache.mem_side_port::system.l2cache.cpu_side_port      1199104                       # Cumulative packet size per connected requestor and responder (bytes)
system.l2bus.pkt_size_system.cpu.dcache.mem_side_port::system.l2cache.cpu_side_port    606944704                       # Cumulative packet size per connected requestor and responder (bytes)
system.l2bus.pkt_size::total                608143808                       # Cumulative packet size per connected requestor and responder (bytes)
system.l2bus.snoops                            264159                       # Total snoops (count)
system.l2bus.snoopTraffic                     2229568                       # Total snoop traffic (bytes)
system.l2bus.snoop_fanout::samples            6891642                       # Request fanout histogram
system.l2bus.snoop_fanout::mean              0.002323                       # Request fanout histogram
system.l2bus.snoop_fanout::stdev             0.048137                       # Request fanout histogram
system.l2bus.snoop_fanout::underflows               0      0.00%      0.00% # Request fanout histogram
system.l2bus.snoop_fanout::0                  6875636     99.77%     99.77% # Request fanout histogram
system.l2bus.snoop_fanout::1                    16006      0.23%    100.00% # Request fanout histogram
system.l2bus.snoop_fanout::2                        0      0.00%    100.00% # Request fanout histogram
system.l2bus.snoop_fanout::overflows                0      0.00%    100.00% # Request fanout histogram
system.l2bus.snoop_fanout::min_value                0                       # Request fanout histogram
system.l2bus.snoop_fanout::max_value                1                       # Request fanout histogram
system.l2bus.snoop_fanout::total              6891642                       # Request fanout histogram
system.l2bus.power_state.pwrStateResidencyTicks::UNDEFINED 1239049007000                       # Cumulative time (in ticks) in various power states
system.l2bus.reqLayer0.occupancy          19003214000                       # Layer occupancy (ticks)
system.l2bus.reqLayer0.utilization                1.5                       # Layer utilization (%)
system.l2bus.respLayer0.occupancy            56208000                       # Layer occupancy (ticks)
system.l2bus.respLayer0.utilization               0.0                       # Layer utilization (%)
system.l2bus.respLayer1.occupancy         19826241000                       # Layer occupancy (ticks)
system.l2bus.respLayer1.utilization               1.6                       # Layer utilization (%)
system.l2cache.demand_hits::.cpu.inst           11589                       # number of demand (read+write) hits
system.l2cache.demand_hits::.cpu.data         6349132                       # number of demand (read+write) hits
system.l2cache.demand_hits::total             6360721                       # number of demand (read+write) hits
system.l2cache.overall_hits::.cpu.inst          11589                       # number of overall hits
system.l2cache.overall_hits::.cpu.data        6349132                       # number of overall hits
system.l2cache.overall_hits::total            6360721                       # number of overall hits
system.l2cache.demand_misses::.cpu.inst          7147                       # number of demand (read+write) misses
system.l2cache.demand_misses::.cpu.data        259615                       # number of demand (read+write) misses
system.l2cache.demand_misses::total            266762                       # number of demand (read+write) misses
system.l2cache.overall_misses::.cpu.inst         7147                       # number of overall misses
system.l2cache.overall_misses::.cpu.data       259615                       # number of overall misses
system.l2cache.overall_misses::total           266762                       # number of overall misses
system.l2cache.demand_miss_latency::.cpu.inst    713059000                       # number of demand (read+write) miss cycles
system.l2cache.demand_miss_latency::.cpu.data  24878663000                       # number of demand (read+write) miss cycles
system.l2cache.demand_miss_latency::total  25591722000                       # number of demand (read+write) miss cycles
system.l2cache.overall_miss_latency::.cpu.inst    713059000                       # number of overall miss cycles
system.l2cache.overall_miss_latency::.cpu.data  24878663000                       # number of overall miss cycles
system.l2cache.overall_miss_latency::total  25591722000                       # number of overall miss cycles
system.l2cache.demand_accesses::.cpu.inst        18736                       # number of demand (read+write) accesses
system.l2cache.demand_accesses::.cpu.data      6608747                       # number of demand (read+write) accesses
system.l2cache.demand_accesses::total         6627483                       # number of demand (read+write) accesses
system.l2cache.overall_accesses::.cpu.inst        18736                       # number of overall (read+write) accesses
system.l2cache.overall_accesses::.cpu.data      6608747                       # number of overall (read+write) accesses
system.l2cache.overall_accesses::total        6627483                       # number of overall (read+write) accesses
system.l2cache.demand_miss_rate::.cpu.inst     0.381458                       # miss rate for demand accesses
system.l2cache.demand_miss_rate::.cpu.data     0.039284                       # miss rate for demand accesses
system.l2cache.demand_miss_rate::total       0.040251                       # miss rate for demand accesses
system.l2cache.overall_miss_rate::.cpu.inst     0.381458                       # miss rate for overall accesses
system.l2cache.overall_miss_rate::.cpu.data     0.039284                       # miss rate for overall accesses
system.l2cache.overall_miss_rate::total      0.040251                       # miss rate for overall accesses
system.l2cache.demand_avg_miss_latency::.cpu.inst 99770.393172                       # average overall miss latency
system.l2cache.demand_avg_miss_latency::.cpu.data 95829.066117                       # average overall miss latency
system.l2cache.demand_avg_miss_latency::total 95934.660859                       # average overall miss latency
system.l2cache.overall_avg_miss_latency::.cpu.inst 99770.393172                       # average overall miss latency
system.l2cache.overall_avg_miss_latency::.cpu.data 95829.066117                       # average overall miss latency
system.l2cache.overall_avg_miss_latency::total 95934.660859                       # average overall miss latency
system.l2cache.blocked_cycles::no_mshrs             0                       # number of cycles access was blocked
system.l2cache.blocked_cycles::no_targets            0                       # number of cycles access was blocked
system.l2cache.blocked::no_mshrs                    0                       # number of cycles access was blocked
system.l2cache.blocked::no_targets                  0                       # number of cycles access was blocked
system.l2cache.avg_blocked_cycles::no_mshrs          nan                       # average number of cycles each access was blocked
system.l2cache.avg_blocked_cycles::no_targets          nan                       # average number of cycles each access was blocked
system.l2cache.writebacks::.writebacks          34837                       # number of writebacks
system.l2cache.writebacks::total                34837                       # number of writebacks
system.l2cache.demand_mshr_misses::.cpu.inst         7147                       # number of demand (read+write) MSHR misses
system.l2cache.demand_mshr_misses::.cpu.data       259615                       # number of demand (read+write) MSHR misses
system.l2cache.demand_mshr_misses::total       266762                       # number of demand (read+write) MSHR misses
system.l2cache.overall_mshr_misses::.cpu.inst         7147                       # number of overall MSHR misses
system.l2cache.overall_mshr_misses::.cpu.data       259615                       # number of overall MSHR misses
system.l2cache.overall_mshr_misses::total       266762                       # number of overall MSHR misses
system.l2cache.demand_mshr_miss_latency::.cpu.inst    570119000                       # number of demand (read+write) MSHR miss cycles
system.l2cache.demand_mshr_miss_latency::.cpu.data  19686363000                       # number of demand (read+write) MSHR miss cycles
system.l2cache.demand_mshr_miss_latency::total  20256482000                       # number of demand (read+write) MSHR miss cycles
system.l2cache.overall_mshr_miss_latency::.cpu.inst    570119000                       # number of overall MSHR miss cycles
system.l2cache.overall_mshr_miss_latency::.cpu.data  19686363000                       # number of overall MSHR miss cycles
system.l2cache.overall_mshr_miss_latency::total  20256482000                       # number of overall MSHR miss cycles
system.l2cache.demand_mshr_miss_rate::.cpu.inst     0.381458                       # mshr miss rate for demand accesses
system.l2cache.demand_mshr_miss_rate::.cpu.data     0.039284                       # mshr miss rate for demand accesses
system.l2cache.demand_mshr_miss_rate::total     0.040251                       # mshr miss rate for demand accesses
system.l2cache.overall_mshr_miss_rate::.cpu.inst     0.381458                       # mshr miss rate for overall accesses
system.l2cache.overall_mshr_miss_rate::.cpu.data     0.039284                       # mshr miss rate for overall accesses
system.l2cache.overall_mshr_miss_rate::total     0.040251                       # mshr miss rate for overall accesses
system.l2cache.demand_avg_mshr_miss_latency::.cpu.inst 79770.393172                       # average overall mshr miss latency
system.l2cache.demand_avg_mshr_miss_latency::.cpu.data 75829.066117                       # average overall mshr miss latency
system.l2cache.demand_avg_mshr_miss_latency::total 75934.660859                       # average overall mshr miss latency
system.l2cache.overall_avg_mshr_miss_latency::.cpu.inst 79770.393172                       # average overall mshr miss latency
system.l2cache.overall_avg_mshr_miss_latency::.cpu.data 75829.066117                       # average overall mshr miss latency
system.l2cache.overall_avg_mshr_miss_latency::total 75934.660859                       # average overall mshr miss latency
system.l2cache.replacements                    264159                       # number of replacements
system.l2cache.WritebackDirty_hits::.writebacks      2874764                       # number of WritebackDirty hits
system.l2cache.WritebackDirty_hits::total      2874764                       # number of WritebackDirty hits
system.l2cache.WritebackDirty_accesses::.writebacks      2874764                       # number of WritebackDirty accesses(hits+misses)
system.l2cache.WritebackDirty_accesses::total      2874764                       # number of WritebackDirty accesses(hits+misses)
system.l2cache.CleanEvict_mshr_misses::.writebacks         2193                       # number of CleanEvict MSHR misses
system.l2cache.CleanEvict_mshr_misses::total         2193                       # number of CleanEvict MSHR misses
system.l2cache.CleanEvict_mshr_miss_rate::.writebacks          inf                       # mshr miss rate for CleanEvict accesses
system.l2cache.CleanEvict_mshr_miss_rate::total          inf                       # mshr miss rate for CleanEvict accesses
system.l2cache.ReadExReq_hits::.cpu.data        88777                       # number of ReadExReq hits
system.l2cache.ReadExReq_hits::total            88777                       # number of ReadExReq hits
system.l2cache.ReadExReq_misses::.cpu.data        29194                       # number of ReadExReq misses
system.l2cache.ReadExReq_misses::total          29194                       # number of ReadExReq misses
system.l2cache.ReadExReq_miss_latency::.cpu.data   2857329000                       # number of ReadExReq miss cycles
system.l2cache.ReadExReq_miss_latency::total   2857329000                       # number of ReadExReq miss cycles
system.l2cache.ReadExReq_accesses::.cpu.data       117971                       # number of ReadExReq accesses(hits+misses)
system.l2cache.ReadExReq_accesses::total       117971                       # number of ReadExReq accesses(hits+misses)
system.l2cache.ReadExReq_miss_rate::.cpu.data     0.247468                       # miss rate for ReadExReq accesses
system.l2cache.ReadExReq_miss_rate::total     0.247468                       # miss rate for ReadExReq accesses
system.l2cache.ReadExReq_avg_miss_latency::.cpu.data 97873.843941                       # average ReadExReq miss latency
system.l2cache.ReadExReq_avg_miss_latency::total 97873.843941                       # average ReadExReq miss latency
system.l2cache.ReadExReq_mshr_misses::.cpu.data        29194                       # number of ReadExReq MSHR misses
system.l2cache.ReadExReq_mshr_misses::total        29194                       # number of ReadExReq MSHR misses
system.l2cache.ReadExReq_mshr_miss_latency::.cpu.data   2273449000                       # number of ReadExReq MSHR miss cycles
system.l2cache.ReadExReq_mshr_miss_latency::total   2273449000                       # number of ReadExReq MSHR miss cycles
system.l2cache.ReadExReq_mshr_miss_rate::.cpu.data     0.247468                       # mshr miss rate for ReadExReq accesses
system.l2cache.ReadExReq_mshr_miss_rate::total     0.247468                       # mshr miss rate for ReadExReq accesses
system.l2cache.ReadExReq_avg_mshr_miss_latency::.cpu.data 77873.843941                       # average ReadExReq mshr miss latency
system.l2cache.ReadExReq_avg_mshr_miss_latency::total 77873.843941                       # average ReadExReq mshr miss latency
system.l2cache.ReadSharedReq_hits::.cpu.inst        11589                       # number of ReadSharedReq hits
system.l2cache.ReadSharedReq_hits::.cpu.data      6260355                       # number of ReadSharedReq hits
system.l2cache.ReadSharedReq_hits::total      6271944                       # number of ReadSharedReq hits
system.l2cache.ReadSharedReq_misses::.cpu.inst         7147                       # number of ReadSharedReq misses
system.l2cache.ReadSharedReq_misses::.cpu.data       230421                       # number of ReadSharedReq misses
system.l2cache.ReadSharedReq_misses::total       237568                       # number of ReadSharedReq misses
system.l2cache.ReadSharedReq_miss_latency::.cpu.inst    713059000                       # number of ReadSharedReq miss cycles
system.l2cache.ReadSharedReq_miss_latency::.cpu.data  22021334000                       # number of ReadSharedReq miss cycles
system.l2cache.ReadSharedReq_miss_latency::total  22734393000                       # number of ReadSharedReq miss cycles
system.l2cache.ReadSharedReq_accesses::.cpu.inst        18736                       # number of ReadSharedReq accesses(hits+misses)
system.l2cache.ReadSharedReq_accesses::.cpu.data      6490776                       # number of ReadSharedReq accesses(hits+misses)
system.l2cache.ReadSharedReq_accesses::total      6509512                       # number of ReadSharedReq accesses(hits+misses)
system.l2cache.ReadSharedReq_miss_rate::.cpu.inst     0.381458                       # miss rate for ReadSharedReq accesses
system.l2cache.ReadSharedReq_miss_rate::.cpu.data     0.035500                       # miss rate for ReadSharedReq accesses
system.l2cache.ReadSharedReq_miss_rate::total     0.036496                       # miss rate for ReadSharedReq accesses
system.l2cache.ReadSharedReq_avg_miss_latency::.cpu.inst 99770.393172                       # average ReadSharedReq miss latency
system.l2cache.ReadSharedReq_avg_miss_latency::.cpu.data 95569.995790                       # average ReadSharedReq miss latency
system.l2cache.ReadSharedReq_avg_miss_latency::total 95696.360621                       # average ReadSharedReq miss latency
system.l2cache.ReadSharedReq_mshr_misses::.cpu.inst         7147                       # number of ReadSharedReq MSHR misses
system.l2cache.ReadSharedReq_mshr_misses::.cpu.data       230421                       # number of ReadSharedReq MSHR misses
system.l2cache.ReadSharedReq_mshr_misses::total       237568                       # number of ReadSharedReq MSHR misses
system.l2cache.ReadSharedReq_mshr_miss_latency::.cpu.inst    570119000                       # number of ReadSharedReq MSHR miss cycles
system.l2cache.ReadSharedReq_mshr_miss_latency::.cpu.data  17412914000                       # number of ReadSharedReq MSHR miss cycles
system.l2cache.ReadSharedReq_mshr_miss_latency::total  17983033000                       # number of ReadSharedReq MSHR miss cycles
system.l2cache.ReadSharedReq_mshr_miss_rate::.cpu.inst     0.381458                       # mshr miss rate for ReadSharedReq accesses
system.l2cache.ReadSharedReq_mshr_miss_rate::.cpu.data     0.035500                       # mshr miss rate for ReadSharedReq accesses
system.l2cache.ReadSharedReq_mshr_miss_rate::total     0.036496                       # mshr miss rate for ReadSharedReq accesses
system.l2cache.ReadSharedReq_avg_mshr_miss_latency::.cpu.inst 79770.393172                       # average ReadSharedReq mshr miss latency
system.l2cache.ReadSharedReq_avg_mshr_miss_latency::.cpu.data 75569.995790                       # average ReadSharedReq mshr miss latency
system.l2cache.ReadSharedReq_avg_mshr_miss_latency::total 75696.360621                       # average ReadSharedReq mshr miss latency
system.l2cache.power_state.pwrStateResidencyTicks::UNDEFINED 1239049007000                       # Cumulative time (in ticks) in various power states
system.l2cache.tags.tagsinuse            16332.827187                       # Cycle average of tags in use
system.l2cache.tags.total_refs               13251493                       # Total number of references to valid blocks.
system.l2cache.tags.sampled_refs               280543                       # Sample count of references to valid blocks.
system.l2cache.tags.avg_refs                47.235158                       # Average number of references to valid blocks.
system.l2cache.tags.warmup_cycle                86000                       # Cycle when the warmup percentage was hit.
system.l2cache.tags.occ_blocks::.writebacks    85.892177                       # Average occupied blocks per requestor
system.l2cache.tags.occ_blocks::.cpu.inst   227.479399                       # Average occupied blocks per requestor
system.l2cache.tags.occ_blocks::.cpu.data 16019.455610                       # Average occupied blocks per requestor
system.l2cache.tags.occ_percent::.writebacks     0.005242                       # Average percentage of cache occupancy
system.l2cache.tags.occ_percent::.cpu.inst     0.013884                       # Average percentage of cache occupancy
system.l2cache.tags.occ_percent::.cpu.data     0.977750                       # Average percentage of cache occupancy
system.l2cache.tags.occ_percent::total       0.996877                       # Average percentage of cache occupancy
system.l2cache.tags.occ_task_id_blocks::1024        16384                       # Occupied blocks per task id
system.l2cache.tags.age_task_id_blocks_1024::0           59                       # Occupied blocks per task id
system.l2cache.tags.age_task_id_blocks_1024::1          139                       # Occupied blocks per task id
system.l2cache.tags.age_task_id_blocks_1024::2         1581                       # Occupied blocks per task id
system.l2cache.tags.age_task_id_blocks_1024::3          595                       # Occupied blocks per task id
system.l2cache.tags.age_task_id_blocks_1024::4        14010                       # Occupied blocks per task id
system.l2cache.tags.occ_task_id_percent::1024            1                       # Percentage of cache occupancy per task id
system.l2cache.tags.tag_accesses            106310031                       # Number of tag accesses
system.l2cache.tags.data_accesses           106310031                       # Number of data accesses
system.l2cache.tags.power_state.pwrStateResidencyTicks::UNDEFINED 1239049007000                       # Cumulative time (in ticks) in various power states
system.mem_ctrl.avgPriority_.writebacks::samples     27863.00                       # Average QoS priority value for accepted requests
system.mem_ctrl.avgPriority_.cpu.inst::samples      7147.00                       # Average QoS priority value for accepted requests
system.mem_ctrl.avgPriority_.cpu.data::samples    251650.00                       # Average QoS priority value for accepted requests
system.mem_ctrl.priorityMinLatency       0.000000018750                       # per QoS priority minimum request to response latency (s)
system.mem_ctrl.priorityMaxLatency       0.129079790500                       # per QoS priority maximum request to response latency (s)
system.mem_ctrl.numReadWriteTurnArounds          1579                       # Number of turnarounds from READ to WRITE
system.mem_ctrl.numWriteReadTurnArounds          1579                       # Number of turnarounds from WRITE to READ
system.mem_ctrl.numStayReadState               870296                       # Number of times bus staying in READ state
system.mem_ctrl.numStayWriteState               26309                       # Number of times bus staying in WRITE state
system.mem_ctrl.readReqs                       266762                       # Number of read requests accepted
system.mem_ctrl.writeReqs                       34837                       # Number of write requests accepted
system.mem_ctrl.readBursts                     266762                       # Number of controller read bursts, including those serviced by the write queue
system.mem_ctrl.writeBursts                     34837                       # Number of controller write bursts, including those merged in the write queue
system.mem_ctrl.servicedByWrQ                    7965                       # Number of controller read bursts serviced by the write queue
system.mem_ctrl.mergedWrBursts                   6974                       # Number of controller write bursts merged with an existing one
system.mem_ctrl.neitherReadNorWriteReqs             0                       # Number of requests that are neither read nor write
system.mem_ctrl.avgRdQLen                        1.00                       # Average read queue length when enqueuing
system.mem_ctrl.avgWrQLen                       23.98                       # Average write queue length when enqueuing
system.mem_ctrl.numRdRetry                          0                       # Number of times read queue was full causing retry
system.mem_ctrl.numWrRetry                          0                       # Number of times write queue was full causing retry
system.mem_ctrl.readPktSize::0                      0                       # Read request sizes (log2)
system.mem_ctrl.readPktSize::1                      0                       # Read request sizes (log2)
system.mem_ctrl.readPktSize::2                      0                       # Read request sizes (log2)
system.mem_ctrl.readPktSize::3                      0                       # Read request sizes (log2)
system.mem_ctrl.readPktSize::4                      0                       # Read request sizes (log2)
system.mem_ctrl.readPktSize::5                      0                       # Read request sizes (log2)
system.mem_ctrl.readPktSize::6                 266762                       # Read request sizes (log2)
system.mem_ctrl.writePktSize::0                     0                       # Write request sizes (log2)
system.mem_ctrl.writePktSize::1                     0                       # Write request sizes (log2)
system.mem_ctrl.writePktSize::2                     0                       # Write request sizes (log2)
system.mem_ctrl.writePktSize::3                     0                       # Write request sizes (log2)
system.mem_ctrl.writePktSize::4                     0                       # Write request sizes (log2)
system.mem_ctrl.writePktSize::5                     0                       # Write request sizes (log2)
system.mem_ctrl.writePktSize::6                 34837                       # Write request sizes (log2)
system.mem_ctrl.rdQLenPdf::0                   258717                       # What read queue length does an incoming req see
system.mem_ctrl.rdQLenPdf::1                       80                       # What read queue length does an incoming req see
system.mem_ctrl.rdQLenPdf::2                        0                       # What read queue length does an incoming req see
system.mem_ctrl.rdQLenPdf::3                        0                       # What read queue length does an incoming req see
system.mem_ctrl.rdQLenPdf::4                        0                       # What read queue length does an incoming req see
system.mem_ctrl.rdQLenPdf::5                        0                       # What read queue length does an incoming req see
system.mem_ctrl.rdQLenPdf::6                        0                       # What read queue length does an incoming req see
system.mem_ctrl.rdQLenPdf::7                        0                       # What read queue length does an incoming req see
system.mem_ctrl.rdQLenPdf::8                        0                       # What read queue length does an incoming req see
system.mem_ctrl.rdQLenPdf::9                        0                       # What read queue length does an incoming req see
system.mem_ctrl.rdQLenPdf::10                       0                       # What read queue length does an incoming req see
system.mem_ctrl.rdQLenPdf::11                       0                       # What read queue length does an incoming req see
system.mem_ctrl.rdQLenPdf::12                       0                       # What read queue length does an incoming req see
system.mem_ctrl.rdQLenPdf::13                       0                       # What read queue length does an incoming req see
system.mem_ctrl.rdQLenPdf::14                       0                       # What read queue length does an incoming req see
system.mem_ctrl.rdQLenPdf::15                       0                       # What read queue length does an incoming req see
system.mem_ctrl.rdQLenPdf::16                       0                       # What read queue length does an incoming req see
system.mem_ctrl.rdQLenPdf::17                       0                       # What read queue length does an incoming req see
system.mem_ctrl.rdQLenPdf::18                       0                       # What read queue length does an incoming req see
system.mem_ctrl.rdQLenPdf::19                       0                       # What read queue length does an incoming req see
system.mem_ctrl.rdQLenPdf::20                       0                       # What read queue length does an incoming req see
system.mem_ctrl.rdQLenPdf::21                       0                       # What read queue length does an incoming req see
system.mem_ctrl.rdQLenPdf::22                       0                       # What read queue length does an incoming req see
system.mem_ctrl.rdQLenPdf::23                       0                       # What read queue length does an incoming req see
system.mem_ctrl.rdQLenPdf::24                       0                       # What read queue length does an incoming req see
system.mem_ctrl.rdQLenPdf::25                       0                       # What read queue length does an incoming req see
system.mem_ctrl.rdQLenPdf::26                       0                       # What read queue length does an incoming req see
system.mem_ctrl.rdQLenPdf::27                       0                       # What read queue length does an incoming req see
system.mem_ctrl.rdQLenPdf::28                       0                       # What read queue length does an incoming req see
system.mem_ctrl.rdQLenPdf::29                       0                       # What read queue length does an incoming req see
system.mem_ctrl.rdQLenPdf::30                       0                       # What read queue length does an incoming req see
system.mem_ctrl.rdQLenPdf::31                       0                       # What read queue length does an incoming req see
system.mem_ctrl.wrQLenPdf::0                        1                       # What write queue length does an incoming req see
system.mem_ctrl.wrQLenPdf::1                        1                       # What write queue length does an incoming req see
system.mem_ctrl.wrQLenPdf::2                        1                       # What write queue length does an incoming req see
system.mem_ctrl.wrQLenPdf::3                        1                       # What write queue length does an incoming req see
system.mem_ctrl.wrQLenPdf::4                        1                       # What write queue length does an incoming req see
system.mem_ctrl.wrQLenPdf::5                        1                       # What write queue length does an incoming req see
system.mem_ctrl.wrQLenPdf::6                        1                       # What write queue length does an incoming req see
system.mem_ctrl.wrQLenPdf::7                        1                       # What write queue length does an incoming req see
system.mem_ctrl.wrQLenPdf::8                        1                       # What write queue length does an incoming req see
system.mem_ctrl.wrQLenPdf::9                        1                       # What write queue length does an incoming req see
system.mem_ctrl.wrQLenPdf::10                       1                       # What write queue length does an incoming req see
system.mem_ctrl.wrQLenPdf::11                       1                       # What write queue length does an incoming req see
system.mem_ctrl.wrQLenPdf::12                       1                       # What write queue length does an incoming req see
system.mem_ctrl.wrQLenPdf::13                       1                       # What write queue length does an incoming req see
system.mem_ctrl.wrQLenPdf::14                       1                       # What write queue length does an incoming req see
system.mem_ctrl.wrQLenPdf::15                    1277                       # What write queue length does an incoming req see
system.mem_ctrl.wrQLenPdf::16                    1302                       # What write queue length does an incoming req see
system.mem_ctrl.wrQLenPdf::17                    1580                       # What write queue length does an incoming req see
system.mem_ctrl.wrQLenPdf::18                    1580                       # What write queue length does an incoming req see
system.mem_ctrl.wrQLenPdf::19                    1580                       # What write queue length does an incoming req see
system.mem_ctrl.wrQLenPdf::20                    1579                       # What write queue length does an incoming req see
system.mem_ctrl.wrQLenPdf::21                    1579                       # What write queue length does an incoming req see
system.mem_ctrl.wrQLenPdf::22                    1579                       # What write queue length does an incoming req see
system.mem_ctrl.wrQLenPdf::23                    1581                       # What write queue length does an incoming req see
system.mem_ctrl.wrQLenPdf::24                    1579                       # What write queue length does an incoming req see
system.mem_ctrl.wrQLenPdf::25                    1579                       # What write queue length does an incoming req see
system.mem_ctrl.wrQLenPdf::26                    1579                       # What write queue length does an incoming req see
system.mem_ctrl.wrQLenPdf::27                    1579                       # What write queue length does an incoming req see
system.mem_ctrl.wrQLenPdf::28                    1579                       # What write queue length does an incoming req see
system.mem_ctrl.wrQLenPdf::29                    1579                       # What write queue length does an incoming req see
system.mem_ctrl.wrQLenPdf::30                    1579                       # What write queue length does an incoming req see
system.mem_ctrl.wrQLenPdf::31                    1579                       # What write queue length does an incoming req see
system.mem_ctrl.wrQLenPdf::32                    1579                       # What write queue length does an incoming req see
system.mem_ctrl.wrQLenPdf::33                       0                       # What write queue length does an incoming req see
system.mem_ctrl.wrQLenPdf::34                       0                       # What write queue length does an incoming req see
system.mem_ctrl.wrQLenPdf::35                       0                       # What write queue length does an incoming req see
system.mem_ctrl.wrQLenPdf::36                       0                       # What write queue length does an incoming req see
system.mem_ctrl.wrQLenPdf::37                       0                       # What write queue length does an incoming req see
system.mem_ctrl.wrQLenPdf::38                       0                       # What write queue length does an incoming req see
system.mem_ctrl.wrQLenPdf::39                       0                       # What write queue length does an incoming req see
system.mem_ctrl.wrQLenPdf::40                       0                       # What write queue length does an incoming req see
system.mem_ctrl.wrQLenPdf::41                       0                       # What write queue length does an incoming req see
system.mem_ctrl.wrQLenPdf::42                       0                       # What write queue length does an incoming req see
system.mem_ctrl.wrQLenPdf::43                       0                       # What write queue length does an incoming req see
system.mem_ctrl.wrQLenPdf::44                       0                       # What write queue length does an incoming req see
system.mem_ctrl.wrQLenPdf::45                       0                       # What write queue length does an incoming req see
system.mem_ctrl.wrQLenPdf::46                       0                       # What write queue length does an incoming req see
system.mem_ctrl.wrQLenPdf::47                       0                       # What write queue length does an incoming req see
system.mem_ctrl.wrQLenPdf::48                       0                       # What write queue length does an incoming req see
system.mem_ctrl.wrQLenPdf::49                       0                       # What write queue length does an incoming req see
system.mem_ctrl.wrQLenPdf::50                       0                       # What write queue length does an incoming req see
system.mem_ctrl.wrQLenPdf::51                       0                       # What write queue length does an incoming req see
system.mem_ctrl.wrQLenPdf::52                       0                       # What write queue length does an incoming req see
system.mem_ctrl.wrQLenPdf::53                       0                       # What write queue length does an incoming req see
system.mem_ctrl.wrQLenPdf::54                       0                       # What write queue length does an incoming req see
system.mem_ctrl.wrQLenPdf::55                       0                       # What write queue length does an incoming req see
system.mem_ctrl.wrQLenPdf::56                       0                       # What write queue length does an incoming req see
system.mem_ctrl.wrQLenPdf::57                       0                       # What write queue length does an incoming req see
system.mem_ctrl.wrQLenPdf::58                       0                       # What write queue length does an incoming req see
system.mem_ctrl.wrQLenPdf::59                       0                       # What write queue length does an incoming req see
system.mem_ctrl.wrQLenPdf::60                       0                       # What write queue length does an incoming req see
system.mem_ctrl.wrQLenPdf::61                       0                       # What write queue length does an incoming req see
system.mem_ctrl.wrQLenPdf::62                       0                       # What write queue length does an incoming req see
system.mem_ctrl.wrQLenPdf::63                       0                       # What write queue length does an incoming req see
system.mem_ctrl.rdPerTurnAround::samples         1579                       # Reads before turning the bus around for writes
system.mem_ctrl.rdPerTurnAround::mean      163.877137                       # Reads before turning the bus around for writes
system.mem_ctrl.rdPerTurnAround::gmean      26.848814                       # Reads before turning the bus around for writes
system.mem_ctrl.rdPerTurnAround::stdev    1034.832466                       # Reads before turning the bus around for writes
system.mem_ctrl.rdPerTurnAround::0-1023          1549     98.10%     98.10% # Reads before turning the bus around for writes
system.mem_ctrl.rdPerTurnAround::2048-3071            8      0.51%     98.61% # Reads before turning the bus around for writes
system.mem_ctrl.rdPerTurnAround::3072-4095            5      0.32%     98.92% # Reads before turning the bus around for writes
system.mem_ctrl.rdPerTurnAround::8192-9215           16      1.01%     99.94% # Reads before turning the bus around for writes
system.mem_ctrl.rdPerTurnAround::16384-17407            1      0.06%    100.00% # Reads before turning the bus around for writes
system.mem_ctrl.rdPerTurnAround::total           1579                       # Reads before turning the bus around for writes
system.mem_ctrl.wrPerTurnAround::samples         1579                       # Writes before turning the bus around for reads
system.mem_ctrl.wrPerTurnAround::mean       17.633312                       # Writes before turning the bus around for reads
system.mem_ctrl.wrPerTurnAround::gmean      17.615763                       # Writes before turning the bus around for reads
system.mem_ctrl.wrPerTurnAround::stdev       0.767978                       # Writes before turning the bus around for reads
system.mem_ctrl.wrPerTurnAround::16               279     17.67%     17.67% # Writes before turning the bus around for reads
system.mem_ctrl.wrPerTurnAround::17                24      1.52%     19.19% # Writes before turning the bus around for reads
system.mem_ctrl.wrPerTurnAround::18              1273     80.62%     99.81% # Writes before turning the bus around for reads
system.mem_ctrl.wrPerTurnAround::19                 3      0.19%    100.00% # Writes before turning the bus around for reads
system.mem_ctrl.wrPerTurnAround::total           1579                       # Writes before turning the bus around for reads
system.mem_ctrl.bytesReadWrQ                   509760                       # Total number of bytes read from write queue
system.mem_ctrl.bytesReadSys                 17072768                       # Total read bytes from the system interface side
system.mem_ctrl.bytesWrittenSys               2229568                       # Total written bytes from the system interface side
system.mem_ctrl.avgRdBWSys                      13.78                       # Average system read bandwidth in MiByte/s
system.mem_ctrl.avgWrBWSys                       1.80                       # Average system write bandwidth in MiByte/s
system.mem_ctrl.totGap                   1239048908000                       # Total gap between requests
system.mem_ctrl.avgGap                     4108265.97                       # Average gap between requests
system.mem_ctrl.requestorReadBytes::.cpu.inst       457408                       # Per-requestor bytes read from memory
system.mem_ctrl.requestorReadBytes::.cpu.data     16105600                       # Per-requestor bytes read from memory
system.mem_ctrl.requestorWriteBytes::.writebacks      1781952                       # Per-requestor bytes write to memory
system.mem_ctrl.requestorReadRate::.cpu.inst 369160.539587922860                       # Per-requestor bytes read from memory rate (Bytes/sec)
system.mem_ctrl.requestorReadRate::.cpu.data 12998355.923786314204                       # Per-requestor bytes read from memory rate (Bytes/sec)
system.mem_ctrl.requestorWriteRate::.writebacks 1438161.033125302289                       # Per-requestor bytes write to memory rate (Bytes/sec)
system.mem_ctrl.requestorReadAccesses::.cpu.inst         7147                       # Per-requestor read serviced memory accesses
system.mem_ctrl.requestorReadAccesses::.cpu.data       259615                       # Per-requestor read serviced memory accesses
system.mem_ctrl.requestorWriteAccesses::.writebacks        34837                       # Per-requestor write serviced memory accesses
system.mem_ctrl.requestorReadTotalLat::.cpu.inst    203160750                       # Per-requestor read total memory access latency
system.mem_ctrl.requestorReadTotalLat::.cpu.data   6450071000                       # Per-requestor read total memory access latency
system.mem_ctrl.requestorWriteTotalLat::.writebacks 29434458765750                       # Per-requestor write total memory access latency
system.mem_ctrl.requestorReadAvgLat::.cpu.inst     28426.02                       # Per-requestor read average memory access latency
system.mem_ctrl.requestorReadAvgLat::.cpu.data     24844.75                       # Per-requestor read average memory access latency
system.mem_ctrl.requestorWriteAvgLat::.writebacks 844919446.73                       # Per-requestor write average memory access latency
system.mem_ctrl.dram.bytes_read::.cpu.inst       457408                       # Number of bytes read from this memory
system.mem_ctrl.dram.bytes_read::.cpu.data     16615360                       # Number of bytes read from this memory
system.mem_ctrl.dram.bytes_read::total       17072768                       # Number of bytes read from this memory
system.mem_ctrl.dram.bytes_inst_read::.cpu.inst       457408                       # Number of instructions bytes read from this memory
system.mem_ctrl.dram.bytes_inst_read::total       457408                       # Number of instructions bytes read from this memory
system.mem_ctrl.dram.bytes_written::.writebacks      2229568                       # Number of bytes written to this memory
system.mem_ctrl.dram.bytes_written::total      2229568                       # Number of bytes written to this memory
system.mem_ctrl.dram.num_reads::.cpu.inst         7147                       # Number of read requests responded to by this memory
system.mem_ctrl.dram.num_reads::.cpu.data       259615                       # Number of read requests responded to by this memory
system.mem_ctrl.dram.num_reads::total          266762                       # Number of read requests responded to by this memory
system.mem_ctrl.dram.num_writes::.writebacks        34837                       # Number of write requests responded to by this memory
system.mem_ctrl.dram.num_writes::total          34837                       # Number of write requests responded to by this memory
system.mem_ctrl.dram.bw_read::.cpu.inst        369161                       # Total read bandwidth from this memory (bytes/s)
system.mem_ctrl.dram.bw_read::.cpu.data      13409768                       # Total read bandwidth from this memory (bytes/s)
system.mem_ctrl.dram.bw_read::total          13778929                       # Total read bandwidth from this memory (bytes/s)
system.mem_ctrl.dram.bw_inst_read::.cpu.inst       369161                       # Instruction read bandwidth from this memory (bytes/s)
system.mem_ctrl.dram.bw_inst_read::total       369161                       # Instruction read bandwidth from this memory (bytes/s)
system.mem_ctrl.dram.bw_write::.writebacks      1799419                       # Write bandwidth from this memory (bytes/s)
system.mem_ctrl.dram.bw_write::total          1799419                       # Write bandwidth from this memory (bytes/s)
system.mem_ctrl.dram.bw_total::.writebacks      1799419                       # Total bandwidth to/from this memory (bytes/s)
system.mem_ctrl.dram.bw_total::.cpu.inst       369161                       # Total bandwidth to/from this memory (bytes/s)
system.mem_ctrl.dram.bw_total::.cpu.data     13409768                       # Total bandwidth to/from this memory (bytes/s)
system.mem_ctrl.dram.bw_total::total         15578347                       # Total bandwidth to/from this memory (bytes/s)
system.mem_ctrl.dram.readBursts                258797                       # Number of DRAM read bursts
system.mem_ctrl.dram.writeBursts                27843                       # Number of DRAM write bursts
system.mem_ctrl.dram.perBankRdBursts::0          9632                       # Per bank write bursts
system.mem_ctrl.dram.perBankRdBursts::1          5192                       # Per bank write bursts
system.mem_ctrl.dram.perBankRdBursts::2          3608                       # Per bank write bursts
system.mem_ctrl.dram.perBankRdBursts::3          3402                       # Per bank write bursts
system.mem_ctrl.dram.perBankRdBursts::4          3979                       # Per bank write bursts
system.mem_ctrl.dram.perBankRdBursts::5          6809                       # Per bank write bursts
system.mem_ctrl.dram.perBankRdBursts::6         82718                       # Per bank write bursts
system.mem_ctrl.dram.perBankRdBursts::7         89499                       # Per bank write bursts
system.mem_ctrl.dram.perBankRdBursts::8          8273                       # Per bank write bursts
system.mem_ctrl.dram.perBankRdBursts::9          3245                       # Per bank write bursts
system.mem_ctrl.dram.perBankRdBursts::10         4583                       # Per bank write bursts
system.mem_ctrl.dram.perBankRdBursts::11         2411                       # Per bank write bursts
system.mem_ctrl.dram.perBankRdBursts::12         3273                       # Per bank write bursts
system.mem_ctrl.dram.perBankRdBursts::13         4758                       # Per bank write bursts
system.mem_ctrl.dram.perBankRdBursts::14         9093                       # Per bank write bursts
system.mem_ctrl.dram.perBankRdBursts::15        18322                       # Per bank write bursts
system.mem_ctrl.dram.perBankWrBursts::0          2320                       # Per bank write bursts
system.mem_ctrl.dram.perBankWrBursts::1          1854                       # Per bank write bursts
system.mem_ctrl.dram.perBankWrBursts::2          1963                       # Per bank write bursts
system.mem_ctrl.dram.perBankWrBursts::3          2006                       # Per bank write bursts
system.mem_ctrl.dram.perBankWrBursts::4          1368                       # Per bank write bursts
system.mem_ctrl.dram.perBankWrBursts::5          1491                       # Per bank write bursts
system.mem_ctrl.dram.perBankWrBursts::6          2451                       # Per bank write bursts
system.mem_ctrl.dram.perBankWrBursts::7          2643                       # Per bank write bursts
system.mem_ctrl.dram.perBankWrBursts::8          1790                       # Per bank write bursts
system.mem_ctrl.dram.perBankWrBursts::9           788                       # Per bank write bursts
system.mem_ctrl.dram.perBankWrBursts::10          728                       # Per bank write bursts
system.mem_ctrl.dram.perBankWrBursts::11          921                       # Per bank write bursts
system.mem_ctrl.dram.perBankWrBursts::12         1185                       # Per bank write bursts
system.mem_ctrl.dram.perBankWrBursts::13         1992                       # Per bank write bursts
system.mem_ctrl.dram.perBankWrBursts::14         1907                       # Per bank write bursts
system.mem_ctrl.dram.perBankWrBursts::15         2436                       # Per bank write bursts
system.mem_ctrl.dram.totQLat               1800788000                       # Total ticks spent queuing
system.mem_ctrl.dram.totBusLat             1293985000                       # Total ticks spent in databus transfers
system.mem_ctrl.dram.totMemAccLat          6653231750                       # Total ticks spent from burst creation until serviced by the DRAM
system.mem_ctrl.dram.avgQLat                  6958.30                       # Average queueing delay per DRAM burst
system.mem_ctrl.dram.avgBusLat                5000.00                       # Average bus latency per DRAM burst
system.mem_ctrl.dram.avgMemAccLat            25708.30                       # Average memory access latency per DRAM burst
system.mem_ctrl.dram.readRowHits               205222                       # Number of row buffer hits during reads
system.mem_ctrl.dram.writeRowHits               20930                       # Number of row buffer hits during writes
system.mem_ctrl.dram.readRowHitRate             79.30                       # Row buffer hit rate for reads
system.mem_ctrl.dram.writeRowHitRate            75.17                       # Row buffer hit rate for writes
system.mem_ctrl.dram.bytesPerActivate::samples        60481                       # Bytes accessed per row activation
system.mem_ctrl.dram.bytesPerActivate::mean   303.297631                       # Bytes accessed per row activation
system.mem_ctrl.dram.bytesPerActivate::gmean   183.119119                       # Bytes accessed per row activation
system.mem_ctrl.dram.bytesPerActivate::stdev   302.690667                       # Bytes accessed per row activation
system.mem_ctrl.dram.bytesPerActivate::0-127        23206     38.37%     38.37% # Bytes accessed per row activation
system.mem_ctrl.dram.bytesPerActivate::128-255        11363     18.79%     57.16% # Bytes accessed per row activation
system.mem_ctrl.dram.bytesPerActivate::256-383         6698     11.07%     68.23% # Bytes accessed per row activation
system.mem_ctrl.dram.bytesPerActivate::384-511         4365      7.22%     75.45% # Bytes accessed per row activation
system.mem_ctrl.dram.bytesPerActivate::512-639         3269      5.41%     80.85% # Bytes accessed per row activation
system.mem_ctrl.dram.bytesPerActivate::640-767         2836      4.69%     85.54% # Bytes accessed per row activation
system.mem_ctrl.dram.bytesPerActivate::768-895         3730      6.17%     91.71% # Bytes accessed per row activation
system.mem_ctrl.dram.bytesPerActivate::896-1023         1513      2.50%     94.21% # Bytes accessed per row activation
system.mem_ctrl.dram.bytesPerActivate::1024-1151         3501      5.79%    100.00% # Bytes accessed per row activation
system.mem_ctrl.dram.bytesPerActivate::total        60481                       # Bytes accessed per row activation
system.mem_ctrl.dram.bytesRead               16563008                       # Total number of bytes read from DRAM
system.mem_ctrl.dram.bytesWritten             1781952                       # Total number of bytes written to DRAM
system.mem_ctrl.dram.avgRdBW                13.367516                       # Average DRAM read bandwidth in MiBytes/s
system.mem_ctrl.dram.avgWrBW                 1.438161                       # Average DRAM write bandwidth in MiBytes/s
system.mem_ctrl.dram.peakBW                  12800.00                       # Theoretical peak bandwidth in MiByte/s
system.mem_ctrl.dram.busUtil                     0.12                       # Data bus utilization in percentage
system.mem_ctrl.dram.busUtilRead                 0.10                       # Data bus utilization in percentage for reads
system.mem_ctrl.dram.busUtilWrite                0.01                       # Data bus utilization in percentage for writes
system.mem_ctrl.dram.pageHitRate                78.90                       # Row buffer hit rate, read and write combined
system.mem_ctrl.dram.power_state.pwrStateResidencyTicks::UNDEFINED 1239049007000                       # Cumulative time (in ticks) in various power states
system.mem_ctrl.dram.rank0.actEnergy        300458340                       # Energy for activate commands per rank (pJ)
system.mem_ctrl.dram.rank0.preEnergy        159682215                       # Energy for precharge commands per rank (pJ)
system.mem_ctrl.dram.rank0.readEnergy      1462550460                       # Energy for read commands per rank (pJ)
system.mem_ctrl.dram.rank0.writeEnergy       84021120                       # Energy for write commands per rank (pJ)
system.mem_ctrl.dram.rank0.refreshEnergy 97808892480.000015                       # Energy for refresh commands per rank (pJ)
system.mem_ctrl.dram.rank0.actBackEnergy  92187986700                       # Energy for active background per rank (pJ)
system.mem_ctrl.dram.rank0.preBackEnergy 398162830080                       # Energy for precharge background per rank (pJ)
system.mem_ctrl.dram.rank0.actPowerDownEnergy            0                       # Energy for active power-down per rank (pJ)
system.mem_ctrl.dram.rank0.prePowerDownEnergy            0                       # Energy for precharge power-down per rank (pJ)
system.mem_ctrl.dram.rank0.selfRefreshEnergy            0                       # Energy for self refresh per rank (pJ)
system.mem_ctrl.dram.rank0.totalEnergy   590166421395                       # Total energy per rank (pJ)
system.mem_ctrl.dram.rank0.averagePower    476.305956                       # Core power per rank (mW)
system.mem_ctrl.dram.rank0.totalIdleTime            0                       # Total Idle time Per DRAM Rank
system.mem_ctrl.dram.rank0.pwrStateTime::IDLE 1034226099750                       # Time in different power states
system.mem_ctrl.dram.rank0.pwrStateTime::REF  41374320000                       # Time in different power states
system.mem_ctrl.dram.rank0.pwrStateTime::SREF            0                       # Time in different power states
system.mem_ctrl.dram.rank0.pwrStateTime::PRE_PDN            0                       # Time in different power states
system.mem_ctrl.dram.rank0.pwrStateTime::ACT 163448587250                       # Time in different power states
system.mem_ctrl.dram.rank0.pwrStateTime::ACT_PDN            0                       # Time in different power states
system.mem_ctrl.dram.rank1.actEnergy        131425980                       # Energy for activate commands per rank (pJ)
system.mem_ctrl.dram.rank1.preEnergy         69843180                       # Energy for precharge commands per rank (pJ)
system.mem_ctrl.dram.rank1.readEnergy       385260120                       # Energy for read commands per rank (pJ)
system.mem_ctrl.dram.rank1.writeEnergy       61319340                       # Energy for write commands per rank (pJ)
system.mem_ctrl.dram.rank1.refreshEnergy 97808892480.000015                       # Energy for refresh commands per rank (pJ)
system.mem_ctrl.dram.rank1.actBackEnergy  42252962850                       # Energy for active background per rank (pJ)
system.mem_ctrl.dram.rank1.preBackEnergy 440213376480                       # Energy for precharge background per rank (pJ)
system.mem_ctrl.dram.rank1.actPowerDownEnergy            0                       # Energy for active power-down per rank (pJ)
system.mem_ctrl.dram.rank1.prePowerDownEnergy            0                       # Energy for precharge power-down per rank (pJ)
system.mem_ctrl.dram.rank1.selfRefreshEnergy            0                       # Energy for self refresh per rank (pJ)
system.mem_ctrl.dram.rank1.totalEnergy   580923080430                       # Total energy per rank (pJ)
system.mem_ctrl.dram.rank1.averagePower    468.845927                       # Core power per rank (mW)
system.mem_ctrl.dram.rank1.totalIdleTime            0                       # Total Idle time Per DRAM Rank
system.mem_ctrl.dram.rank1.pwrStateTime::IDLE 1144017488500                       # Time in different power states
system.mem_ctrl.dram.rank1.pwrStateTime::REF  41374320000                       # Time in different power states
system.mem_ctrl.dram.rank1.pwrStateTime::SREF            0                       # Time in different power states
system.mem_ctrl.dram.rank1.pwrStateTime::PRE_PDN            0                       # Time in different power states
system.mem_ctrl.dram.rank1.pwrStateTime::ACT  53657198500                       # Time in different power states
system.mem_ctrl.dram.rank1.pwrStateTime::ACT_PDN            0                       # Time in different power states
system.mem_ctrl.power_state.pwrStateResidencyTicks::UNDEFINED 1239049007000                       # Cumulative time (in ticks) in various power states
system.membus.trans_dist::ReadResp             237568                       # Transaction distribution
system.membus.trans_dist::WritebackDirty        34837                       # Transaction distribution
system.membus.trans_dist::CleanEvict           215509                       # Transaction distribution
system.membus.trans_dist::ReadExReq             29194                       # Transaction distribution
system.membus.trans_dist::ReadExResp            29194                       # Transaction distribution
system.membus.trans_dist::ReadSharedReq        237568                       # Transaction distribution
system.membus.pkt_count_system.l2cache.mem_side_port::system.mem_ctrl.port       783870                       # Packet count per connected requestor and responder (bytes)
system.membus.pkt_count_system.l2cache.mem_side_port::total       783870                       # Packet count per connected requestor and responder (bytes)
system.membus.pkt_count::total                 783870                       # Packet count per connected requestor and responder (bytes)
system.membus.pkt_size_system.l2cache.mem_side_port::system.mem_ctrl.port     19302336                       # Cumulative packet size per connected requestor and responder (bytes)
system.membus.pkt_size_system.l2cache.mem_side_port::total     19302336                       # Cumulative packet size per connected requestor and responder (bytes)
system.membus.pkt_size::total                19302336                       # Cumulative packet size per connected requestor and responder (bytes)
system.membus.snoops                                0                       # Total snoops (count)
system.membus.snoopTraffic                          0                       # Total snoop traffic (bytes)
system.membus.snoop_fanout::samples            266762                       # Request fanout histogram
system.membus.snoop_fanout::mean                    0                       # Request fanout histogram
system.membus.snoop_fanout::stdev                   0                       # Request fanout histogram
system.membus.snoop_fanout::underflows              0      0.00%      0.00% # Request fanout histogram
system.membus.snoop_fanout::0                  266762    100.00%    100.00% # Request fanout histogram
system.membus.snoop_fanout::1                       0      0.00%    100.00% # Request fanout histogram
system.membus.snoop_fanout::overflows               0      0.00%    100.00% # Request fanout histogram
system.membus.snoop_fanout::min_value               0                       # Request fanout histogram
system.membus.snoop_fanout::max_value               0                       # Request fanout histogram
system.membus.snoop_fanout::total              266762                       # Request fanout histogram
system.membus.power_state.pwrStateResidencyTicks::UNDEFINED 1239049007000                       # Cumulative time (in ticks) in various power states
system.membus.reqLayer2.occupancy           656456000                       # Layer occupancy (ticks)
system.membus.reqLayer2.utilization               0.1                       # Layer utilization (%)
system.membus.respLayer0.occupancy         1411818500                       # Layer occupancy (ticks)
system.membus.respLayer0.utilization              0.1                       # Layer utilization (%)

---------- End Simulation Statistics   ----------
