
---------- Begin Simulation Statistics ----------
final_tick                               2320023959000                       # Number of ticks from beginning of simulation (restored from checkpoints and never reset)
host_inst_rate                                 454319                       # Simulator instruction rate (inst/s)
host_mem_usage                                 674440                       # Number of bytes of host memory used
host_op_rate                                   665624                       # Simulator op (including micro ops) rate (op/s)
host_seconds                                  1158.17                       # Real time elapsed on the host
host_tick_rate                             2003185647                       # Simulator tick rate (ticks/s)
sim_freq                                 1000000000000                       # Frequency of simulated ticks
sim_insts                                   526177739                       # Number of instructions simulated
sim_ops                                     770903828                       # Number of ops (including micro ops) simulated
sim_seconds                                  2.320024                       # Number of seconds simulated
sim_ticks                                2320023959000                       # Number of ticks simulated
system.cpu.Branches                           3021919                       # Number of branches fetched
system.cpu.committedInsts                   526177739                       # Number of instructions committed
system.cpu.committedOps                     770903828                       # Number of ops (including micro ops) committed
system.cpu.idle_fraction                     0.000000                       # Percentage of idle cycles
system.cpu.not_idle_fraction                 1.000000                       # Percentage of non-idle cycles
system.cpu.numCycles                       2320023959                       # number of cpu cycles simulated
system.cpu.numWorkItemsCompleted                    0                       # number of work items this cpu completed
system.cpu.numWorkItemsStarted                      0                       # number of work items this cpu started
system.cpu.num_busy_cycles               2320023958.999000                       # Number of busy cycles
system.cpu.num_cc_register_reads              8346439                       # number of times the CC registers were read
system.cpu.num_cc_register_writes            12896342                       # number of times the CC registers were written
system.cpu.num_conditional_control_insts      1622649                       # number of instructions that are conditional controls
system.cpu.num_fp_alu_accesses              724171269                       # Number of float alu accesses
system.cpu.num_fp_insts                     724171269                       # number of float instructions
system.cpu.num_fp_register_reads           1031628198                       # number of times the floating registers were read
system.cpu.num_fp_register_writes           638978691                       # number of times the floating registers were written
system.cpu.num_func_calls                     1356008                       # number of times a function call or return occured
system.cpu.num_idle_cycles                   0.001000                       # Number of idle cycles
system.cpu.num_int_alu_accesses             281644002                       # Number of integer alu accesses
system.cpu.num_int_insts                    281644002                       # number of integer instructions
system.cpu.num_int_register_reads           783870340                       # number of times the integer registers were read
system.cpu.num_int_register_writes           35235604                       # number of times the integer registers were written
system.cpu.num_load_insts                   151055065                       # Number of load instructions
system.cpu.num_mem_refs                     244655501                       # number of memory refs
system.cpu.num_store_insts                   93600436                       # Number of store instructions
system.cpu.num_vec_alu_accesses                     0                       # Number of vector alu accesses
system.cpu.num_vec_insts                            0                       # number of vector instructions
system.cpu.num_vec_register_reads                   0                       # number of times the vector registers were read
system.cpu.num_vec_register_writes                  0                       # number of times the vector registers were written
system.cpu.op_class::No_OpClass                122349      0.02%      0.02% # Class of executed instruction
system.cpu.op_class::IntAlu                 156847938     20.35%     20.36% # Class of executed instruction
system.cpu.op_class::IntMult                    38310      0.00%     20.37% # Class of executed instruction
system.cpu.op_class::IntDiv                       574      0.00%     20.37% # Class of executed instruction
system.cpu.op_class::FloatAdd               129162355     16.75%     37.12% # Class of executed instruction
system.cpu.op_class::FloatCmp                       0      0.00%     37.12% # Class of executed instruction
system.cpu.op_class::FloatCvt                       0      0.00%     37.12% # Class of executed instruction
system.cpu.op_class::FloatMult                      0      0.00%     37.12% # Class of executed instruction
system.cpu.op_class::FloatMultAcc                   0      0.00%     37.12% # Class of executed instruction
system.cpu.op_class::FloatDiv                       0      0.00%     37.12% # Class of executed instruction
system.cpu.op_class::FloatMisc                      0      0.00%     37.12% # Class of executed instruction
system.cpu.op_class::FloatSqrt                      0      0.00%     37.12% # Class of executed instruction
system.cpu.op_class::SimdAdd                      104      0.00%     37.12% # Class of executed instruction
system.cpu.op_class::SimdAddAcc                     0      0.00%     37.12% # Class of executed instruction
system.cpu.op_class::SimdAlu                 13572619      1.76%     38.88% # Class of executed instruction
system.cpu.op_class::SimdCmp                       18      0.00%     38.88% # Class of executed instruction
system.cpu.op_class::SimdCvt                     1518      0.00%     38.88% # Class of executed instruction
system.cpu.op_class::SimdMisc                   18290      0.00%     38.88% # Class of executed instruction
system.cpu.op_class::SimdMult                       0      0.00%     38.88% # Class of executed instruction
system.cpu.op_class::SimdMultAcc                    0      0.00%     38.88% # Class of executed instruction
system.cpu.op_class::SimdShift                    156      0.00%     38.88% # Class of executed instruction
system.cpu.op_class::SimdShiftAcc                   0      0.00%     38.88% # Class of executed instruction
system.cpu.op_class::SimdDiv                        0      0.00%     38.88% # Class of executed instruction
system.cpu.op_class::SimdSqrt                       0      0.00%     38.88% # Class of executed instruction
system.cpu.op_class::SimdFloatAdd           100487583     13.04%     51.92% # Class of executed instruction
system.cpu.op_class::SimdFloatAlu                   0      0.00%     51.92% # Class of executed instruction
system.cpu.op_class::SimdFloatCmp                   0      0.00%     51.92% # Class of executed instruction
system.cpu.op_class::SimdFloatCvt               11622      0.00%     51.92% # Class of executed instruction
system.cpu.op_class::SimdFloatDiv             1355195      0.18%     52.10% # Class of executed instruction
system.cpu.op_class::SimdFloatMisc                  0      0.00%     52.10% # Class of executed instruction
system.cpu.op_class::SimdFloatMult          124629795     16.17%     68.26% # Class of executed instruction
system.cpu.op_class::SimdFloatMultAcc               0      0.00%     68.26% # Class of executed instruction
system.cpu.op_class::SimdFloatSqrt                 10      0.00%     68.26% # Class of executed instruction
system.cpu.op_class::SimdReduceAdd                  0      0.00%     68.26% # Class of executed instruction
system.cpu.op_class::SimdReduceAlu                  0      0.00%     68.26% # Class of executed instruction
system.cpu.op_class::SimdReduceCmp                  0      0.00%     68.26% # Class of executed instruction
system.cpu.op_class::SimdFloatReduceAdd             0      0.00%     68.26% # Class of executed instruction
system.cpu.op_class::SimdFloatReduceCmp             0      0.00%     68.26% # Class of executed instruction
system.cpu.op_class::SimdAes                        0      0.00%     68.26% # Class of executed instruction
system.cpu.op_class::SimdAesMix                     0      0.00%     68.26% # Class of executed instruction
system.cpu.op_class::SimdSha1Hash                   0      0.00%     68.26% # Class of executed instruction
system.cpu.op_class::SimdSha1Hash2                  0      0.00%     68.26% # Class of executed instruction
system.cpu.op_class::SimdSha256Hash                 0      0.00%     68.26% # Class of executed instruction
system.cpu.op_class::SimdSha256Hash2                0      0.00%     68.26% # Class of executed instruction
system.cpu.op_class::SimdShaSigma2                  0      0.00%     68.26% # Class of executed instruction
system.cpu.op_class::SimdShaSigma3                  0      0.00%     68.26% # Class of executed instruction
system.cpu.op_class::SimdPredAlu                    0      0.00%     68.26% # Class of executed instruction
system.cpu.op_class::MemRead                  1225922      0.16%     68.42% # Class of executed instruction
system.cpu.op_class::MemWrite                 8411221      1.09%     69.51% # Class of executed instruction
system.cpu.op_class::FloatMemRead           149829143     19.44%     88.95% # Class of executed instruction
system.cpu.op_class::FloatMemWrite           85189215     11.05%    100.00% # Class of executed instruction
system.cpu.op_class::IprAccess                      0      0.00%    100.00% # Class of executed instruction
system.cpu.op_class::InstPrefetch                   0      0.00%    100.00% # Class of executed instruction
system.cpu.op_class::total                  770903937                       # Class of executed instruction
system.cpu.workload.numSyscalls                    85                       # Number of system calls
system.l2bus.snoop_filter.hit_multi_requests            0                       # Number of requests hitting in the snoop filter with multiple (>1) holders of the requested data.
system.l2bus.snoop_filter.hit_multi_snoops            0                       # Number of snoops hitting in the snoop filter with multiple (>1) holders of the requested data.
system.l2bus.snoop_filter.hit_single_requests      4513455                       # Number of requests hitting in the snoop filter with a single holder of the requested data.
system.l2bus.snoop_filter.hit_single_snoops        25997                       # Number of snoops hitting in the snoop filter with a single holder of the requested data.
system.l2bus.snoop_filter.tot_requests        9028190                       # Total number of requests made to the snoop filter.
system.l2bus.snoop_filter.tot_snoops            25997                       # Total number of snoops made to the snoop filter.
system.membus.snoop_filter.hit_multi_requests            0                       # Number of requests hitting in the snoop filter with multiple (>1) holders of the requested data.
system.membus.snoop_filter.hit_multi_snoops            0                       # Number of snoops hitting in the snoop filter with multiple (>1) holders of the requested data.
system.membus.snoop_filter.hit_single_requests       412078                       # Number of requests hitting in the snoop filter with a single holder of the requested data.
system.membus.snoop_filter.hit_single_snoops            0                       # Number of snoops hitting in the snoop filter with a single holder of the requested data.
system.membus.snoop_filter.tot_requests        828288                       # Total number of requests made to the snoop filter.
system.membus.snoop_filter.tot_snoops               0                       # Total number of snoops made to the snoop filter.
system.clk_domain.clock                          1000                       # Clock period in ticks
system.clk_domain.voltage_domain.voltage            1                       # Voltage in Volts
system.cpu.dcache.demand_hits::.cpu.data    243143527                       # number of demand (read+write) hits
system.cpu.dcache.demand_hits::total        243143527                       # number of demand (read+write) hits
system.cpu.dcache.overall_hits::.cpu.data    243143527                       # number of overall hits
system.cpu.dcache.overall_hits::total       243143527                       # number of overall hits
system.cpu.dcache.demand_misses::.cpu.data      1512015                       # number of demand (read+write) misses
system.cpu.dcache.demand_misses::total        1512015                       # number of demand (read+write) misses
system.cpu.dcache.overall_misses::.cpu.data      1512015                       # number of overall misses
system.cpu.dcache.overall_misses::total       1512015                       # number of overall misses
system.cpu.dcache.demand_miss_latency::.cpu.data  67608664000                       # number of demand (read+write) miss cycles
system.cpu.dcache.demand_miss_latency::total  67608664000                       # number of demand (read+write) miss cycles
system.cpu.dcache.overall_miss_latency::.cpu.data  67608664000                       # number of overall miss cycles
system.cpu.dcache.overall_miss_latency::total  67608664000                       # number of overall miss cycles
system.cpu.dcache.demand_accesses::.cpu.data    244655542                       # number of demand (read+write) accesses
system.cpu.dcache.demand_accesses::total    244655542                       # number of demand (read+write) accesses
system.cpu.dcache.overall_accesses::.cpu.data    244655542                       # number of overall (read+write) accesses
system.cpu.dcache.overall_accesses::total    244655542                       # number of overall (read+write) accesses
system.cpu.dcache.demand_miss_rate::.cpu.data     0.006180                       # miss rate for demand accesses
system.cpu.dcache.demand_miss_rate::total     0.006180                       # miss rate for demand accesses
system.cpu.dcache.overall_miss_rate::.cpu.data     0.006180                       # miss rate for overall accesses
system.cpu.dcache.overall_miss_rate::total     0.006180                       # miss rate for overall accesses
system.cpu.dcache.demand_avg_miss_latency::.cpu.data 44714.281274                       # average overall miss latency
system.cpu.dcache.demand_avg_miss_latency::total 44714.281274                       # average overall miss latency
system.cpu.dcache.overall_avg_miss_latency::.cpu.data 44714.281274                       # average overall miss latency
system.cpu.dcache.overall_avg_miss_latency::total 44714.281274                       # average overall miss latency
system.cpu.dcache.blocked_cycles::no_mshrs            0                       # number of cycles access was blocked
system.cpu.dcache.blocked_cycles::no_targets            0                       # number of cycles access was blocked
system.cpu.dcache.blocked::no_mshrs                 0                       # number of cycles access was blocked
system.cpu.dcache.blocked::no_targets               0                       # number of cycles access was blocked
system.cpu.dcache.avg_blocked_cycles::no_mshrs          nan                       # average number of cycles each access was blocked
system.cpu.dcache.avg_blocked_cycles::no_targets          nan                       # average number of cycles each access was blocked
system.cpu.dcache.writebacks::.writebacks       828724                       # number of writebacks
system.cpu.dcache.writebacks::total            828724                       # number of writebacks
system.cpu.dcache.demand_mshr_misses::.cpu.data      1512015                       # number of demand (read+write) MSHR misses
system.cpu.dcache.demand_mshr_misses::total      1512015                       # number of demand (read+write) MSHR misses
system.cpu.dcache.overall_mshr_misses::.cpu.data      1512015                       # number of overall MSHR misses
system.cpu.dcache.overall_mshr_misses::total      1512015                       # number of overall MSHR misses
system.cpu.dcache.demand_mshr_miss_latency::.cpu.data  64584634000                       # number of demand (read+write) MSHR miss cycles
system.cpu.dcache.demand_mshr_miss_latency::total  64584634000                       # number of demand (read+write) MSHR miss cycles
system.cpu.dcache.overall_mshr_miss_latency::.cpu.data  64584634000                       # number of overall MSHR miss cycles
system.cpu.dcache.overall_mshr_miss_latency::total  64584634000                       # number of overall MSHR miss cycles
system.cpu.dcache.demand_mshr_miss_rate::.cpu.data     0.006180                       # mshr miss rate for demand accesses
system.cpu.dcache.demand_mshr_miss_rate::total     0.006180                       # mshr miss rate for demand accesses
system.cpu.dcache.overall_mshr_miss_rate::.cpu.data     0.006180                       # mshr miss rate for overall accesses
system.cpu.dcache.overall_mshr_miss_rate::total     0.006180                       # mshr miss rate for overall accesses
system.cpu.dcache.demand_avg_mshr_miss_latency::.cpu.data 42714.281274                       # average overall mshr miss latency
system.cpu.dcache.demand_avg_mshr_miss_latency::total 42714.281274                       # average overall mshr miss latency
system.cpu.dcache.overall_avg_mshr_miss_latency::.cpu.data 42714.281274                       # average overall mshr miss latency
system.cpu.dcache.overall_avg_mshr_miss_latency::total 42714.281274                       # average overall mshr miss latency
system.cpu.dcache.replacements                1510991                       # number of replacements
system.cpu.dcache.ReadReq_hits::.cpu.data    149747006                       # number of ReadReq hits
system.cpu.dcache.ReadReq_hits::total       149747006                       # number of ReadReq hits
system.cpu.dcache.ReadReq_misses::.cpu.data      1308087                       # number of ReadReq misses
system.cpu.dcache.ReadReq_misses::total       1308087                       # number of ReadReq misses
system.cpu.dcache.ReadReq_miss_latency::.cpu.data  53675480000                       # number of ReadReq miss cycles
system.cpu.dcache.ReadReq_miss_latency::total  53675480000                       # number of ReadReq miss cycles
system.cpu.dcache.ReadReq_accesses::.cpu.data    151055093                       # number of ReadReq accesses(hits+misses)
system.cpu.dcache.ReadReq_accesses::total    151055093                       # number of ReadReq accesses(hits+misses)
system.cpu.dcache.ReadReq_miss_rate::.cpu.data     0.008660                       # miss rate for ReadReq accesses
system.cpu.dcache.ReadReq_miss_rate::total     0.008660                       # miss rate for ReadReq accesses
system.cpu.dcache.ReadReq_avg_miss_latency::.cpu.data 41033.570397                       # average ReadReq miss latency
system.cpu.dcache.ReadReq_avg_miss_latency::total 41033.570397                       # average ReadReq miss latency
system.cpu.dcache.ReadReq_mshr_misses::.cpu.data      1308087                       # number of ReadReq MSHR misses
system.cpu.dcache.ReadReq_mshr_misses::total      1308087                       # number of ReadReq MSHR misses
system.cpu.dcache.ReadReq_mshr_miss_latency::.cpu.data  51059306000                       # number of ReadReq MSHR miss cycles
system.cpu.dcache.ReadReq_mshr_miss_latency::total  51059306000                       # number of ReadReq MSHR miss cycles
system.cpu.dcache.ReadReq_mshr_miss_rate::.cpu.data     0.008660                       # mshr miss rate for ReadReq accesses
system.cpu.dcache.ReadReq_mshr_miss_rate::total     0.008660                       # mshr miss rate for ReadReq accesses
system.cpu.dcache.ReadReq_avg_mshr_miss_latency::.cpu.data 39033.570397                       # average ReadReq mshr miss latency
system.cpu.dcache.ReadReq_avg_mshr_miss_latency::total 39033.570397                       # average ReadReq mshr miss latency
system.cpu.dcache.WriteReq_hits::.cpu.data     93396521                       # number of WriteReq hits
system.cpu.dcache.WriteReq_hits::total       93396521                       # number of WriteReq hits
system.cpu.dcache.WriteReq_misses::.cpu.data       203928                       # number of WriteReq misses
system.cpu.dcache.WriteReq_misses::total       203928                       # number of WriteReq misses
system.cpu.dcache.WriteReq_miss_latency::.cpu.data  13933184000                       # number of WriteReq miss cycles
system.cpu.dcache.WriteReq_miss_latency::total  13933184000                       # number of WriteReq miss cycles
system.cpu.dcache.WriteReq_accesses::.cpu.data     93600449                       # number of WriteReq accesses(hits+misses)
system.cpu.dcache.WriteReq_accesses::total     93600449                       # number of WriteReq accesses(hits+misses)
system.cpu.dcache.WriteReq_miss_rate::.cpu.data     0.002179                       # miss rate for WriteReq accesses
system.cpu.dcache.WriteReq_miss_rate::total     0.002179                       # miss rate for WriteReq accesses
system.cpu.dcache.WriteReq_avg_miss_latency::.cpu.data 68324.035934                       # average WriteReq miss latency
system.cpu.dcache.WriteReq_avg_miss_latency::total 68324.035934                       # average WriteReq miss latency
system.cpu.dcache.WriteReq_mshr_misses::.cpu.data       203928                       # number of WriteReq MSHR misses
system.cpu.dcache.WriteReq_mshr_misses::total       203928                       # number of WriteReq MSHR misses
system.cpu.dcache.WriteReq_mshr_miss_latency::.cpu.data  13525328000                       # number of WriteReq MSHR miss cycles
system.cpu.dcache.WriteReq_mshr_miss_latency::total  13525328000                       # number of WriteReq MSHR miss cycles
system.cpu.dcache.WriteReq_mshr_miss_rate::.cpu.data     0.002179                       # mshr miss rate for WriteReq accesses
system.cpu.dcache.WriteReq_mshr_miss_rate::total     0.002179                       # mshr miss rate for WriteReq accesses
system.cpu.dcache.WriteReq_avg_mshr_miss_latency::.cpu.data 66324.035934                       # average WriteReq mshr miss latency
system.cpu.dcache.WriteReq_avg_mshr_miss_latency::total 66324.035934                       # average WriteReq mshr miss latency
system.cpu.dcache.power_state.pwrStateResidencyTicks::UNDEFINED 2320023959000                       # Cumulative time (in ticks) in various power states
system.cpu.dcache.tags.tagsinuse          1023.846153                       # Cycle average of tags in use
system.cpu.dcache.tags.total_refs           244655542                       # Total number of references to valid blocks.
system.cpu.dcache.tags.sampled_refs           1512015                       # Sample count of references to valid blocks.
system.cpu.dcache.tags.avg_refs            161.807616                       # Average number of references to valid blocks.
system.cpu.dcache.tags.warmup_cycle            224000                       # Cycle when the warmup percentage was hit.
system.cpu.dcache.tags.occ_blocks::.cpu.data  1023.846153                       # Average occupied blocks per requestor
system.cpu.dcache.tags.occ_percent::.cpu.data     0.999850                       # Average percentage of cache occupancy
system.cpu.dcache.tags.occ_percent::total     0.999850                       # Average percentage of cache occupancy
system.cpu.dcache.tags.occ_task_id_blocks::1024         1024                       # Occupied blocks per task id
system.cpu.dcache.tags.age_task_id_blocks_1024::0           28                       # Occupied blocks per task id
system.cpu.dcache.tags.age_task_id_blocks_1024::1           83                       # Occupied blocks per task id
system.cpu.dcache.tags.age_task_id_blocks_1024::2          498                       # Occupied blocks per task id
system.cpu.dcache.tags.age_task_id_blocks_1024::3          415                       # Occupied blocks per task id
system.cpu.dcache.tags.occ_task_id_percent::1024            1                       # Percentage of cache occupancy per task id
system.cpu.dcache.tags.tag_accesses         490823099                       # Number of tag accesses
system.cpu.dcache.tags.data_accesses        490823099                       # Number of data accesses
system.cpu.dcache.tags.power_state.pwrStateResidencyTicks::UNDEFINED 2320023959000                       # Cumulative time (in ticks) in various power states
system.cpu.dtb.rdAccesses                   151055094                       # TLB accesses on read requests
system.cpu.dtb.wrAccesses                    93600472                       # TLB accesses on write requests
system.cpu.dtb.rdMisses                          4202                       # TLB misses on read requests
system.cpu.dtb.wrMisses                          2551                       # TLB misses on write requests
system.cpu.dtb.walker.power_state.pwrStateResidencyTicks::UNDEFINED 2320023959000                       # Cumulative time (in ticks) in various power states
system.cpu.icache.demand_hits::.cpu.inst    841887876                       # number of demand (read+write) hits
system.cpu.icache.demand_hits::total        841887876                       # number of demand (read+write) hits
system.cpu.icache.overall_hits::.cpu.inst    841887876                       # number of overall hits
system.cpu.icache.overall_hits::total       841887876                       # number of overall hits
system.cpu.icache.demand_misses::.cpu.inst      3002720                       # number of demand (read+write) misses
system.cpu.icache.demand_misses::total        3002720                       # number of demand (read+write) misses
system.cpu.icache.overall_misses::.cpu.inst      3002720                       # number of overall misses
system.cpu.icache.overall_misses::total       3002720                       # number of overall misses
system.cpu.icache.demand_miss_latency::.cpu.inst  82352557000                       # number of demand (read+write) miss cycles
system.cpu.icache.demand_miss_latency::total  82352557000                       # number of demand (read+write) miss cycles
system.cpu.icache.overall_miss_latency::.cpu.inst  82352557000                       # number of overall miss cycles
system.cpu.icache.overall_miss_latency::total  82352557000                       # number of overall miss cycles
system.cpu.icache.demand_accesses::.cpu.inst    844890596                       # number of demand (read+write) accesses
system.cpu.icache.demand_accesses::total    844890596                       # number of demand (read+write) accesses
system.cpu.icache.overall_accesses::.cpu.inst    844890596                       # number of overall (read+write) accesses
system.cpu.icache.overall_accesses::total    844890596                       # number of overall (read+write) accesses
system.cpu.icache.demand_miss_rate::.cpu.inst     0.003554                       # miss rate for demand accesses
system.cpu.icache.demand_miss_rate::total     0.003554                       # miss rate for demand accesses
system.cpu.icache.overall_miss_rate::.cpu.inst     0.003554                       # miss rate for overall accesses
system.cpu.icache.overall_miss_rate::total     0.003554                       # miss rate for overall accesses
system.cpu.icache.demand_avg_miss_latency::.cpu.inst 27425.986106                       # average overall miss latency
system.cpu.icache.demand_avg_miss_latency::total 27425.986106                       # average overall miss latency
system.cpu.icache.overall_avg_miss_latency::.cpu.inst 27425.986106                       # average overall miss latency
system.cpu.icache.overall_avg_miss_latency::total 27425.986106                       # average overall miss latency
system.cpu.icache.blocked_cycles::no_mshrs            0                       # number of cycles access was blocked
system.cpu.icache.blocked_cycles::no_targets            0                       # number of cycles access was blocked
system.cpu.icache.blocked::no_mshrs                 0                       # number of cycles access was blocked
system.cpu.icache.blocked::no_targets               0                       # number of cycles access was blocked
system.cpu.icache.avg_blocked_cycles::no_mshrs          nan                       # average number of cycles each access was blocked
system.cpu.icache.avg_blocked_cycles::no_targets          nan                       # average number of cycles each access was blocked
system.cpu.icache.demand_mshr_misses::.cpu.inst      3002720                       # number of demand (read+write) MSHR misses
system.cpu.icache.demand_mshr_misses::total      3002720                       # number of demand (read+write) MSHR misses
system.cpu.icache.overall_mshr_misses::.cpu.inst      3002720                       # number of overall MSHR misses
system.cpu.icache.overall_mshr_misses::total      3002720                       # number of overall MSHR misses
system.cpu.icache.demand_mshr_miss_latency::.cpu.inst  76347117000                       # number of demand (read+write) MSHR miss cycles
system.cpu.icache.demand_mshr_miss_latency::total  76347117000                       # number of demand (read+write) MSHR miss cycles
system.cpu.icache.overall_mshr_miss_latency::.cpu.inst  76347117000                       # number of overall MSHR miss cycles
system.cpu.icache.overall_mshr_miss_latency::total  76347117000                       # number of overall MSHR miss cycles
system.cpu.icache.demand_mshr_miss_rate::.cpu.inst     0.003554                       # mshr miss rate for demand accesses
system.cpu.icache.demand_mshr_miss_rate::total     0.003554                       # mshr miss rate for demand accesses
system.cpu.icache.overall_mshr_miss_rate::.cpu.inst     0.003554                       # mshr miss rate for overall accesses
system.cpu.icache.overall_mshr_miss_rate::total     0.003554                       # mshr miss rate for overall accesses
system.cpu.icache.demand_avg_mshr_miss_latency::.cpu.inst 25425.986106                       # average overall mshr miss latency
system.cpu.icache.demand_avg_mshr_miss_latency::total 25425.986106                       # average overall mshr miss latency
system.cpu.icache.overall_avg_mshr_miss_latency::.cpu.inst 25425.986106                       # average overall mshr miss latency
system.cpu.icache.overall_avg_mshr_miss_latency::total 25425.986106                       # average overall mshr miss latency
system.cpu.icache.replacements                3002464                       # number of replacements
system.cpu.icache.ReadReq_hits::.cpu.inst    841887876                       # number of ReadReq hits
system.cpu.icache.ReadReq_hits::total       841887876                       # number of ReadReq hits
system.cpu.icache.ReadReq_misses::.cpu.inst      3002720                       # number of ReadReq misses
system.cpu.icache.ReadReq_misses::total       3002720                       # number of ReadReq misses
system.cpu.icache.ReadReq_miss_latency::.cpu.inst  82352557000                       # number of ReadReq miss cycles
system.cpu.icache.ReadReq_miss_latency::total  82352557000                       # number of ReadReq miss cycles
system.cpu.icache.ReadReq_accesses::.cpu.inst    844890596                       # number of ReadReq accesses(hits+misses)
system.cpu.icache.ReadReq_accesses::total    844890596                       # number of ReadReq accesses(hits+misses)
system.cpu.icache.ReadReq_miss_rate::.cpu.inst     0.003554                       # miss rate for ReadReq accesses
system.cpu.icache.ReadReq_miss_rate::total     0.003554                       # miss rate for ReadReq accesses
system.cpu.icache.ReadReq_avg_miss_latency::.cpu.inst 27425.986106                       # average ReadReq miss latency
system.cpu.icache.ReadReq_avg_miss_latency::total 27425.986106                       # average ReadReq miss latency
system.cpu.icache.ReadReq_mshr_misses::.cpu.inst      3002720                       # number of ReadReq MSHR misses
system.cpu.icache.ReadReq_mshr_misses::total      3002720                       # number of ReadReq MSHR misses
system.cpu.icache.ReadReq_mshr_miss_latency::.cpu.inst  76347117000                       # number of ReadReq MSHR miss cycles
system.cpu.icache.ReadReq_mshr_miss_latency::total  76347117000                       # number of ReadReq MSHR miss cycles
system.cpu.icache.ReadReq_mshr_miss_rate::.cpu.inst     0.003554                       # mshr miss rate for ReadReq accesses
system.cpu.icache.ReadReq_mshr_miss_rate::total     0.003554                       # mshr miss rate for ReadReq accesses
system.cpu.icache.ReadReq_avg_mshr_miss_latency::.cpu.inst 25425.986106                       # average ReadReq mshr miss latency
system.cpu.icache.ReadReq_avg_mshr_miss_latency::total 25425.986106                       # average ReadReq mshr miss latency
system.cpu.icache.power_state.pwrStateResidencyTicks::UNDEFINED 2320023959000                       # Cumulative time (in ticks) in various power states
system.cpu.icache.tags.tagsinuse           255.994447                       # Cycle average of tags in use
system.cpu.icache.tags.total_refs           844890596                       # Total number of references to valid blocks.
system.cpu.icache.tags.sampled_refs           3002720                       # Sample count of references to valid blocks.
system.cpu.icache.tags.avg_refs            281.375085                       # Average number of references to valid blocks.
system.cpu.icache.tags.warmup_cycle            107000                       # Cycle when the warmup percentage was hit.
system.cpu.icache.tags.occ_blocks::.cpu.inst   255.994447                       # Average occupied blocks per requestor
system.cpu.icache.tags.occ_percent::.cpu.inst     0.999978                       # Average percentage of cache occupancy
system.cpu.icache.tags.occ_percent::total     0.999978                       # Average percentage of cache occupancy
system.cpu.icache.tags.occ_task_id_blocks::1024          256                       # Occupied blocks per task id
system.cpu.icache.tags.age_task_id_blocks_1024::0           35                       # Occupied blocks per task id
system.cpu.icache.tags.age_task_id_blocks_1024::1          105                       # Occupied blocks per task id
system.cpu.icache.tags.age_task_id_blocks_1024::2          108                       # Occupied blocks per task id
system.cpu.icache.tags.age_task_id_blocks_1024::3            8                       # Occupied blocks per task id
system.cpu.icache.tags.occ_task_id_percent::1024            1                       # Percentage of cache occupancy per task id
system.cpu.icache.tags.tag_accesses        1692783912                       # Number of tag accesses
system.cpu.icache.tags.data_accesses       1692783912                       # Number of data accesses
system.cpu.icache.tags.power_state.pwrStateResidencyTicks::UNDEFINED 2320023959000                       # Cumulative time (in ticks) in various power states
system.cpu.interrupts.clk_domain.clock          16000                       # Clock period in ticks
system.cpu.itb.rdAccesses                           0                       # TLB accesses on read requests
system.cpu.itb.wrAccesses                   844890596                       # TLB accesses on write requests
system.cpu.itb.rdMisses                             0                       # TLB misses on read requests
system.cpu.itb.wrMisses                           158                       # TLB misses on write requests
system.cpu.itb.walker.power_state.pwrStateResidencyTicks::UNDEFINED 2320023959000                       # Cumulative time (in ticks) in various power states
system.cpu.power_state.pwrStateResidencyTicks::ON 2320023959000                       # Cumulative time (in ticks) in various power states
system.cpu.thread_0.numInsts                        0                       # Number of Instructions committed
system.cpu.thread_0.numOps                          0                       # Number of Ops committed
system.cpu.thread_0.numMemRefs                      0                       # Number of Memory References
system.l2bus.trans_dist::ReadResp             4310807                       # Transaction distribution
system.l2bus.trans_dist::WritebackDirty       1026235                       # Transaction distribution
system.l2bus.trans_dist::CleanEvict           3902953                       # Transaction distribution
system.l2bus.trans_dist::ReadExReq             203928                       # Transaction distribution
system.l2bus.trans_dist::ReadExResp            203928                       # Transaction distribution
system.l2bus.trans_dist::ReadSharedReq        4310807                       # Transaction distribution
system.l2bus.pkt_count_system.cpu.icache.mem_side_port::system.l2cache.cpu_side_port      9007904                       # Packet count per connected requestor and responder (bytes)
system.l2bus.pkt_count_system.cpu.dcache.mem_side_port::system.l2cache.cpu_side_port      4535021                       # Packet count per connected requestor and responder (bytes)
system.l2bus.pkt_count::total                13542925                       # Packet count per connected requestor and responder (bytes)
system.l2bus.pkt_size_system.cpu.icache.mem_side_port::system.l2cache.cpu_side_port    192174080                       # Cumulative packet size per connected requestor and responder (bytes)
system.l2bus.pkt_size_system.cpu.dcache.mem_side_port::system.l2cache.cpu_side_port    149807296                       # Cumulative packet size per connected requestor and responder (bytes)
system.l2bus.pkt_size::total                341981376                       # Cumulative packet size per connected requestor and responder (bytes)
system.l2bus.snoops                            415733                       # Total snoops (count)
system.l2bus.snoopTraffic                    12640704                       # Total snoop traffic (bytes)
system.l2bus.snoop_fanout::samples            4930468                       # Request fanout histogram
system.l2bus.snoop_fanout::mean              0.005273                       # Request fanout histogram
system.l2bus.snoop_fanout::stdev             0.072422                       # Request fanout histogram
system.l2bus.snoop_fanout::underflows               0      0.00%      0.00% # Request fanout histogram
system.l2bus.snoop_fanout::0                  4904471     99.47%     99.47% # Request fanout histogram
system.l2bus.snoop_fanout::1                    25997      0.53%    100.00% # Request fanout histogram
system.l2bus.snoop_fanout::2                        0      0.00%    100.00% # Request fanout histogram
system.l2bus.snoop_fanout::overflows                0      0.00%    100.00% # Request fanout histogram
system.l2bus.snoop_fanout::min_value                0                       # Request fanout histogram
system.l2bus.snoop_fanout::max_value                1                       # Request fanout histogram
system.l2bus.snoop_fanout::total              4930468                       # Request fanout histogram
system.l2bus.power_state.pwrStateResidencyTicks::UNDEFINED 2320023959000                       # Cumulative time (in ticks) in various power states
system.l2bus.reqLayer0.occupancy          10685638000                       # Layer occupancy (ticks)
system.l2bus.reqLayer0.utilization                0.5                       # Layer utilization (%)
system.l2bus.respLayer0.occupancy          9008160000                       # Layer occupancy (ticks)
system.l2bus.respLayer0.utilization               0.4                       # Layer utilization (%)
system.l2bus.respLayer1.occupancy          4536045000                       # Layer occupancy (ticks)
system.l2bus.respLayer1.utilization               0.2                       # Layer utilization (%)
system.l2cache.demand_hits::.cpu.inst         2946151                       # number of demand (read+write) hits
system.l2cache.demand_hits::.cpu.data         1152374                       # number of demand (read+write) hits
system.l2cache.demand_hits::total             4098525                       # number of demand (read+write) hits
system.l2cache.overall_hits::.cpu.inst        2946151                       # number of overall hits
system.l2cache.overall_hits::.cpu.data        1152374                       # number of overall hits
system.l2cache.overall_hits::total            4098525                       # number of overall hits
system.l2cache.demand_misses::.cpu.inst         56569                       # number of demand (read+write) misses
system.l2cache.demand_misses::.cpu.data        359641                       # number of demand (read+write) misses
system.l2cache.demand_misses::total            416210                       # number of demand (read+write) misses
system.l2cache.overall_misses::.cpu.inst        56569                       # number of overall misses
system.l2cache.overall_misses::.cpu.data       359641                       # number of overall misses
system.l2cache.overall_misses::total           416210                       # number of overall misses
system.l2cache.demand_miss_latency::.cpu.inst   5469255000                       # number of demand (read+write) miss cycles
system.l2cache.demand_miss_latency::.cpu.data  35843254000                       # number of demand (read+write) miss cycles
system.l2cache.demand_miss_latency::total  41312509000                       # number of demand (read+write) miss cycles
system.l2cache.overall_miss_latency::.cpu.inst   5469255000                       # number of overall miss cycles
system.l2cache.overall_miss_latency::.cpu.data  35843254000                       # number of overall miss cycles
system.l2cache.overall_miss_latency::total  41312509000                       # number of overall miss cycles
system.l2cache.demand_accesses::.cpu.inst      3002720                       # number of demand (read+write) accesses
system.l2cache.demand_accesses::.cpu.data      1512015                       # number of demand (read+write) accesses
system.l2cache.demand_accesses::total         4514735                       # number of demand (read+write) accesses
system.l2cache.overall_accesses::.cpu.inst      3002720                       # number of overall (read+write) accesses
system.l2cache.overall_accesses::.cpu.data      1512015                       # number of overall (read+write) accesses
system.l2cache.overall_accesses::total        4514735                       # number of overall (read+write) accesses
system.l2cache.demand_miss_rate::.cpu.inst     0.018839                       # miss rate for demand accesses
system.l2cache.demand_miss_rate::.cpu.data     0.237855                       # miss rate for demand accesses
system.l2cache.demand_miss_rate::total       0.092189                       # miss rate for demand accesses
system.l2cache.overall_miss_rate::.cpu.inst     0.018839                       # miss rate for overall accesses
system.l2cache.overall_miss_rate::.cpu.data     0.237855                       # miss rate for overall accesses
system.l2cache.overall_miss_rate::total      0.092189                       # miss rate for overall accesses
system.l2cache.demand_avg_miss_latency::.cpu.inst 96682.900529                       # average overall miss latency
system.l2cache.demand_avg_miss_latency::.cpu.data 99663.981582                       # average overall miss latency
system.l2cache.demand_avg_miss_latency::total 99258.809255                       # average overall miss latency
system.l2cache.overall_avg_miss_latency::.cpu.inst 96682.900529                       # average overall miss latency
system.l2cache.overall_avg_miss_latency::.cpu.data 99663.981582                       # average overall miss latency
system.l2cache.overall_avg_miss_latency::total 99258.809255                       # average overall miss latency
system.l2cache.blocked_cycles::no_mshrs             0                       # number of cycles access was blocked
system.l2cache.blocked_cycles::no_targets            0                       # number of cycles access was blocked
system.l2cache.blocked::no_mshrs                    0                       # number of cycles access was blocked
system.l2cache.blocked::no_targets                  0                       # number of cycles access was blocked
system.l2cache.avg_blocked_cycles::no_mshrs          nan                       # average number of cycles each access was blocked
system.l2cache.avg_blocked_cycles::no_targets          nan                       # average number of cycles each access was blocked
system.l2cache.writebacks::.writebacks         197511                       # number of writebacks
system.l2cache.writebacks::total               197511                       # number of writebacks
system.l2cache.demand_mshr_misses::.cpu.inst        56569                       # number of demand (read+write) MSHR misses
system.l2cache.demand_mshr_misses::.cpu.data       359641                       # number of demand (read+write) MSHR misses
system.l2cache.demand_mshr_misses::total       416210                       # number of demand (read+write) MSHR misses
system.l2cache.overall_mshr_misses::.cpu.inst        56569                       # number of overall MSHR misses
system.l2cache.overall_mshr_misses::.cpu.data       359641                       # number of overall MSHR misses
system.l2cache.overall_mshr_misses::total       416210                       # number of overall MSHR misses
system.l2cache.demand_mshr_miss_latency::.cpu.inst   4337875000                       # number of demand (read+write) MSHR miss cycles
system.l2cache.demand_mshr_miss_latency::.cpu.data  28650434000                       # number of demand (read+write) MSHR miss cycles
system.l2cache.demand_mshr_miss_latency::total  32988309000                       # number of demand (read+write) MSHR miss cycles
system.l2cache.overall_mshr_miss_latency::.cpu.inst   4337875000                       # number of overall MSHR miss cycles
system.l2cache.overall_mshr_miss_latency::.cpu.data  28650434000                       # number of overall MSHR miss cycles
system.l2cache.overall_mshr_miss_latency::total  32988309000                       # number of overall MSHR miss cycles
system.l2cache.demand_mshr_miss_rate::.cpu.inst     0.018839                       # mshr miss rate for demand accesses
system.l2cache.demand_mshr_miss_rate::.cpu.data     0.237855                       # mshr miss rate for demand accesses
system.l2cache.demand_mshr_miss_rate::total     0.092189                       # mshr miss rate for demand accesses
system.l2cache.overall_mshr_miss_rate::.cpu.inst     0.018839                       # mshr miss rate for overall accesses
system.l2cache.overall_mshr_miss_rate::.cpu.data     0.237855                       # mshr miss rate for overall accesses
system.l2cache.overall_mshr_miss_rate::total     0.092189                       # mshr miss rate for overall accesses
system.l2cache.demand_avg_mshr_miss_latency::.cpu.inst 76682.900529                       # average overall mshr miss latency
system.l2cache.demand_avg_mshr_miss_latency::.cpu.data 79663.981582                       # average overall mshr miss latency
system.l2cache.demand_avg_mshr_miss_latency::total 79258.809255                       # average overall mshr miss latency
system.l2cache.overall_avg_mshr_miss_latency::.cpu.inst 76682.900529                       # average overall mshr miss latency
system.l2cache.overall_avg_mshr_miss_latency::.cpu.data 79663.981582                       # average overall mshr miss latency
system.l2cache.overall_avg_mshr_miss_latency::total 79258.809255                       # average overall mshr miss latency
system.l2cache.replacements                    411556                       # number of replacements
system.l2cache.WritebackDirty_hits::.writebacks       828687                       # number of WritebackDirty hits
system.l2cache.WritebackDirty_hits::total       828687                       # number of WritebackDirty hits
system.l2cache.WritebackDirty_misses::.writebacks           37                       # number of WritebackDirty misses
system.l2cache.WritebackDirty_misses::total           37                       # number of WritebackDirty misses
system.l2cache.WritebackDirty_accesses::.writebacks       828724                       # number of WritebackDirty accesses(hits+misses)
system.l2cache.WritebackDirty_accesses::total       828724                       # number of WritebackDirty accesses(hits+misses)
system.l2cache.WritebackDirty_miss_rate::.writebacks     0.000045                       # miss rate for WritebackDirty accesses
system.l2cache.WritebackDirty_miss_rate::total     0.000045                       # miss rate for WritebackDirty accesses
system.l2cache.WritebackDirty_mshr_misses::.writebacks           37                       # number of WritebackDirty MSHR misses
system.l2cache.WritebackDirty_mshr_misses::total           37                       # number of WritebackDirty MSHR misses
system.l2cache.WritebackDirty_mshr_miss_rate::.writebacks     0.000045                       # mshr miss rate for WritebackDirty accesses
system.l2cache.WritebackDirty_mshr_miss_rate::total     0.000045                       # mshr miss rate for WritebackDirty accesses
system.l2cache.CleanEvict_mshr_misses::.writebacks        22305                       # number of CleanEvict MSHR misses
system.l2cache.CleanEvict_mshr_misses::total        22305                       # number of CleanEvict MSHR misses
system.l2cache.CleanEvict_mshr_miss_rate::.writebacks          inf                       # mshr miss rate for CleanEvict accesses
system.l2cache.CleanEvict_mshr_miss_rate::total          inf                       # mshr miss rate for CleanEvict accesses
system.l2cache.ReadExReq_hits::.cpu.data        90799                       # number of ReadExReq hits
system.l2cache.ReadExReq_hits::total            90799                       # number of ReadExReq hits
system.l2cache.ReadExReq_misses::.cpu.data       113129                       # number of ReadExReq misses
system.l2cache.ReadExReq_misses::total         113129                       # number of ReadExReq misses
system.l2cache.ReadExReq_miss_latency::.cpu.data  11003979000                       # number of ReadExReq miss cycles
system.l2cache.ReadExReq_miss_latency::total  11003979000                       # number of ReadExReq miss cycles
system.l2cache.ReadExReq_accesses::.cpu.data       203928                       # number of ReadExReq accesses(hits+misses)
system.l2cache.ReadExReq_accesses::total       203928                       # number of ReadExReq accesses(hits+misses)
system.l2cache.ReadExReq_miss_rate::.cpu.data     0.554750                       # miss rate for ReadExReq accesses
system.l2cache.ReadExReq_miss_rate::total     0.554750                       # miss rate for ReadExReq accesses
system.l2cache.ReadExReq_avg_miss_latency::.cpu.data 97269.303185                       # average ReadExReq miss latency
system.l2cache.ReadExReq_avg_miss_latency::total 97269.303185                       # average ReadExReq miss latency
system.l2cache.ReadExReq_mshr_misses::.cpu.data       113129                       # number of ReadExReq MSHR misses
system.l2cache.ReadExReq_mshr_misses::total       113129                       # number of ReadExReq MSHR misses
system.l2cache.ReadExReq_mshr_miss_latency::.cpu.data   8741399000                       # number of ReadExReq MSHR miss cycles
system.l2cache.ReadExReq_mshr_miss_latency::total   8741399000                       # number of ReadExReq MSHR miss cycles
system.l2cache.ReadExReq_mshr_miss_rate::.cpu.data     0.554750                       # mshr miss rate for ReadExReq accesses
system.l2cache.ReadExReq_mshr_miss_rate::total     0.554750                       # mshr miss rate for ReadExReq accesses
system.l2cache.ReadExReq_avg_mshr_miss_latency::.cpu.data 77269.303185                       # average ReadExReq mshr miss latency
system.l2cache.ReadExReq_avg_mshr_miss_latency::total 77269.303185                       # average ReadExReq mshr miss latency
system.l2cache.ReadSharedReq_hits::.cpu.inst      2946151                       # number of ReadSharedReq hits
system.l2cache.ReadSharedReq_hits::.cpu.data      1061575                       # number of ReadSharedReq hits
system.l2cache.ReadSharedReq_hits::total      4007726                       # number of ReadSharedReq hits
system.l2cache.ReadSharedReq_misses::.cpu.inst        56569                       # number of ReadSharedReq misses
system.l2cache.ReadSharedReq_misses::.cpu.data       246512                       # number of ReadSharedReq misses
system.l2cache.ReadSharedReq_misses::total       303081                       # number of ReadSharedReq misses
system.l2cache.ReadSharedReq_miss_latency::.cpu.inst   5469255000                       # number of ReadSharedReq miss cycles
system.l2cache.ReadSharedReq_miss_latency::.cpu.data  24839275000                       # number of ReadSharedReq miss cycles
system.l2cache.ReadSharedReq_miss_latency::total  30308530000                       # number of ReadSharedReq miss cycles
system.l2cache.ReadSharedReq_accesses::.cpu.inst      3002720                       # number of ReadSharedReq accesses(hits+misses)
system.l2cache.ReadSharedReq_accesses::.cpu.data      1308087                       # number of ReadSharedReq accesses(hits+misses)
system.l2cache.ReadSharedReq_accesses::total      4310807                       # number of ReadSharedReq accesses(hits+misses)
system.l2cache.ReadSharedReq_miss_rate::.cpu.inst     0.018839                       # miss rate for ReadSharedReq accesses
system.l2cache.ReadSharedReq_miss_rate::.cpu.data     0.188452                       # miss rate for ReadSharedReq accesses
system.l2cache.ReadSharedReq_miss_rate::total     0.070307                       # miss rate for ReadSharedReq accesses
system.l2cache.ReadSharedReq_avg_miss_latency::.cpu.inst 96682.900529                       # average ReadSharedReq miss latency
system.l2cache.ReadSharedReq_avg_miss_latency::.cpu.data 100762.944603                       # average ReadSharedReq miss latency
system.l2cache.ReadSharedReq_avg_miss_latency::total 100001.418763                       # average ReadSharedReq miss latency
system.l2cache.ReadSharedReq_mshr_misses::.cpu.inst        56569                       # number of ReadSharedReq MSHR misses
system.l2cache.ReadSharedReq_mshr_misses::.cpu.data       246512                       # number of ReadSharedReq MSHR misses
system.l2cache.ReadSharedReq_mshr_misses::total       303081                       # number of ReadSharedReq MSHR misses
system.l2cache.ReadSharedReq_mshr_miss_latency::.cpu.inst   4337875000                       # number of ReadSharedReq MSHR miss cycles
system.l2cache.ReadSharedReq_mshr_miss_latency::.cpu.data  19909035000                       # number of ReadSharedReq MSHR miss cycles
system.l2cache.ReadSharedReq_mshr_miss_latency::total  24246910000                       # number of ReadSharedReq MSHR miss cycles
system.l2cache.ReadSharedReq_mshr_miss_rate::.cpu.inst     0.018839                       # mshr miss rate for ReadSharedReq accesses
system.l2cache.ReadSharedReq_mshr_miss_rate::.cpu.data     0.188452                       # mshr miss rate for ReadSharedReq accesses
system.l2cache.ReadSharedReq_mshr_miss_rate::total     0.070307                       # mshr miss rate for ReadSharedReq accesses
system.l2cache.ReadSharedReq_avg_mshr_miss_latency::.cpu.inst 76682.900529                       # average ReadSharedReq mshr miss latency
system.l2cache.ReadSharedReq_avg_mshr_miss_latency::.cpu.data 80762.944603                       # average ReadSharedReq mshr miss latency
system.l2cache.ReadSharedReq_avg_mshr_miss_latency::total 80001.418763                       # average ReadSharedReq mshr miss latency
system.l2cache.power_state.pwrStateResidencyTicks::UNDEFINED 2320023959000                       # Cumulative time (in ticks) in various power states
system.l2cache.replacement_policy.totalBypasses         4214                       # Total number of cache bypasses
system.l2cache.replacement_policy.effectiveBypasses          794                       # Bypasses that correctly skipped non-reused blocks
system.l2cache.replacement_policy.ineffectiveBypasses         1319                       # Bypasses that incorrectly skipped requested blocks
system.l2cache.replacement_policy.virtualEffectiveBypasses         6105                       # Virtual bypasses correctly predicting non-reused blocks
system.l2cache.replacement_policy.virtualIneffectiveBypasses        13377                       # Virtual bypasses incorrectly predicting requested blocks
system.l2cache.tags.tagsinuse             4091.727537                       # Cycle average of tags in use
system.l2cache.tags.total_refs                9001671                       # Total number of references to valid blocks.
system.l2cache.tags.sampled_refs               415652                       # Sample count of references to valid blocks.
system.l2cache.tags.avg_refs                21.656749                       # Average number of references to valid blocks.
system.l2cache.tags.warmup_cycle               447000                       # Cycle when the warmup percentage was hit.
system.l2cache.tags.occ_blocks::.writebacks    20.927779                       # Average occupied blocks per requestor
system.l2cache.tags.occ_blocks::.cpu.inst   584.704240                       # Average occupied blocks per requestor
system.l2cache.tags.occ_blocks::.cpu.data  3486.095518                       # Average occupied blocks per requestor
system.l2cache.tags.occ_percent::.writebacks     0.005109                       # Average percentage of cache occupancy
system.l2cache.tags.occ_percent::.cpu.inst     0.142750                       # Average percentage of cache occupancy
system.l2cache.tags.occ_percent::.cpu.data     0.851098                       # Average percentage of cache occupancy
system.l2cache.tags.occ_percent::total       0.998957                       # Average percentage of cache occupancy
system.l2cache.tags.occ_task_id_blocks::1024         4096                       # Occupied blocks per task id
system.l2cache.tags.age_task_id_blocks_1024::0           60                       # Occupied blocks per task id
system.l2cache.tags.age_task_id_blocks_1024::1          121                       # Occupied blocks per task id
system.l2cache.tags.age_task_id_blocks_1024::2          672                       # Occupied blocks per task id
system.l2cache.tags.age_task_id_blocks_1024::3         2689                       # Occupied blocks per task id
system.l2cache.tags.age_task_id_blocks_1024::4          554                       # Occupied blocks per task id
system.l2cache.tags.occ_task_id_percent::1024            1                       # Percentage of cache occupancy per task id
system.l2cache.tags.tag_accesses             72641172                       # Number of tag accesses
system.l2cache.tags.data_accesses            72641172                       # Number of data accesses
system.l2cache.tags.power_state.pwrStateResidencyTicks::UNDEFINED 2320023959000                       # Cumulative time (in ticks) in various power states
system.mem_ctrl.avgPriority_.writebacks::samples    197548.00                       # Average QoS priority value for accepted requests
system.mem_ctrl.avgPriority_.cpu.inst::samples     56569.00                       # Average QoS priority value for accepted requests
system.mem_ctrl.avgPriority_.cpu.data::samples    349458.00                       # Average QoS priority value for accepted requests
system.mem_ctrl.priorityMinLatency       0.000000018750                       # per QoS priority minimum request to response latency (s)
system.mem_ctrl.priorityMaxLatency       0.050520146500                       # per QoS priority maximum request to response latency (s)
system.mem_ctrl.numReadWriteTurnArounds         11366                       # Number of turnarounds from READ to WRITE
system.mem_ctrl.numWriteReadTurnArounds         11366                       # Number of turnarounds from WRITE to READ
system.mem_ctrl.numStayReadState              1600243                       # Number of times bus staying in READ state
system.mem_ctrl.numStayWriteState              186337                       # Number of times bus staying in WRITE state
system.mem_ctrl.readReqs                       416210                       # Number of read requests accepted
system.mem_ctrl.writeReqs                      197548                       # Number of write requests accepted
system.mem_ctrl.readBursts                     416210                       # Number of controller read bursts, including those serviced by the write queue
system.mem_ctrl.writeBursts                    197548                       # Number of controller write bursts, including those merged in the write queue
system.mem_ctrl.servicedByWrQ                   10183                       # Number of controller read bursts serviced by the write queue
system.mem_ctrl.mergedWrBursts                      0                       # Number of controller write bursts merged with an existing one
system.mem_ctrl.neitherReadNorWriteReqs             0                       # Number of requests that are neither read nor write
system.mem_ctrl.avgRdQLen                        1.00                       # Average read queue length when enqueuing
system.mem_ctrl.avgWrQLen                       24.44                       # Average write queue length when enqueuing
system.mem_ctrl.numRdRetry                          0                       # Number of times read queue was full causing retry
system.mem_ctrl.numWrRetry                          0                       # Number of times write queue was full causing retry
system.mem_ctrl.readPktSize::0                      0                       # Read request sizes (log2)
system.mem_ctrl.readPktSize::1                      0                       # Read request sizes (log2)
system.mem_ctrl.readPktSize::2                      0                       # Read request sizes (log2)
system.mem_ctrl.readPktSize::3                      0                       # Read request sizes (log2)
system.mem_ctrl.readPktSize::4                      0                       # Read request sizes (log2)
system.mem_ctrl.readPktSize::5                      0                       # Read request sizes (log2)
system.mem_ctrl.readPktSize::6                 416210                       # Read request sizes (log2)
system.mem_ctrl.writePktSize::0                     0                       # Write request sizes (log2)
system.mem_ctrl.writePktSize::1                     0                       # Write request sizes (log2)
system.mem_ctrl.writePktSize::2                     0                       # Write request sizes (log2)
system.mem_ctrl.writePktSize::3                     0                       # Write request sizes (log2)
system.mem_ctrl.writePktSize::4                     0                       # Write request sizes (log2)
system.mem_ctrl.writePktSize::5                     0                       # Write request sizes (log2)
system.mem_ctrl.writePktSize::6                197548                       # Write request sizes (log2)
system.mem_ctrl.rdQLenPdf::0                   406027                       # What read queue length does an incoming req see
system.mem_ctrl.rdQLenPdf::1                        0                       # What read queue length does an incoming req see
system.mem_ctrl.rdQLenPdf::2                        0                       # What read queue length does an incoming req see
system.mem_ctrl.rdQLenPdf::3                        0                       # What read queue length does an incoming req see
system.mem_ctrl.rdQLenPdf::4                        0                       # What read queue length does an incoming req see
system.mem_ctrl.rdQLenPdf::5                        0                       # What read queue length does an incoming req see
system.mem_ctrl.rdQLenPdf::6                        0                       # What read queue length does an incoming req see
system.mem_ctrl.rdQLenPdf::7                        0                       # What read queue length does an incoming req see
system.mem_ctrl.rdQLenPdf::8                        0                       # What read queue length does an incoming req see
system.mem_ctrl.rdQLenPdf::9                        0                       # What read queue length does an incoming req see
system.mem_ctrl.rdQLenPdf::10                       0                       # What read queue length does an incoming req see
system.mem_ctrl.rdQLenPdf::11                       0                       # What read queue length does an incoming req see
system.mem_ctrl.rdQLenPdf::12                       0                       # What read queue length does an incoming req see
system.mem_ctrl.rdQLenPdf::13                       0                       # What read queue length does an incoming req see
system.mem_ctrl.rdQLenPdf::14                       0                       # What read queue length does an incoming req see
system.mem_ctrl.rdQLenPdf::15                       0                       # What read queue length does an incoming req see
system.mem_ctrl.rdQLenPdf::16                       0                       # What read queue length does an incoming req see
system.mem_ctrl.rdQLenPdf::17                       0                       # What read queue length does an incoming req see
system.mem_ctrl.rdQLenPdf::18                       0                       # What read queue length does an incoming req see
system.mem_ctrl.rdQLenPdf::19                       0                       # What read queue length does an incoming req see
system.mem_ctrl.rdQLenPdf::20                       0                       # What read queue length does an incoming req see
system.mem_ctrl.rdQLenPdf::21                       0                       # What read queue length does an incoming req see
system.mem_ctrl.rdQLenPdf::22                       0                       # What read queue length does an incoming req see
system.mem_ctrl.rdQLenPdf::23                       0                       # What read queue length does an incoming req see
system.mem_ctrl.rdQLenPdf::24                       0                       # What read queue length does an incoming req see
system.mem_ctrl.rdQLenPdf::25                       0                       # What read queue length does an incoming req see
system.mem_ctrl.rdQLenPdf::26                       0                       # What read queue length does an incoming req see
system.mem_ctrl.rdQLenPdf::27                       0                       # What read queue length does an incoming req see
system.mem_ctrl.rdQLenPdf::28                       0                       # What read queue length does an incoming req see
system.mem_ctrl.rdQLenPdf::29                       0                       # What read queue length does an incoming req see
system.mem_ctrl.rdQLenPdf::30                       0                       # What read queue length does an incoming req see
system.mem_ctrl.rdQLenPdf::31                       0                       # What read queue length does an incoming req see
system.mem_ctrl.wrQLenPdf::0                        1                       # What write queue length does an incoming req see
system.mem_ctrl.wrQLenPdf::1                        1                       # What write queue length does an incoming req see
system.mem_ctrl.wrQLenPdf::2                        1                       # What write queue length does an incoming req see
system.mem_ctrl.wrQLenPdf::3                        1                       # What write queue length does an incoming req see
system.mem_ctrl.wrQLenPdf::4                        1                       # What write queue length does an incoming req see
system.mem_ctrl.wrQLenPdf::5                        1                       # What write queue length does an incoming req see
system.mem_ctrl.wrQLenPdf::6                        1                       # What write queue length does an incoming req see
system.mem_ctrl.wrQLenPdf::7                        1                       # What write queue length does an incoming req see
system.mem_ctrl.wrQLenPdf::8                        1                       # What write queue length does an incoming req see
system.mem_ctrl.wrQLenPdf::9                        1                       # What write queue length does an incoming req see
system.mem_ctrl.wrQLenPdf::10                       1                       # What write queue length does an incoming req see
system.mem_ctrl.wrQLenPdf::11                       1                       # What write queue length does an incoming req see
system.mem_ctrl.wrQLenPdf::12                       1                       # What write queue length does an incoming req see
system.mem_ctrl.wrQLenPdf::13                       1                       # What write queue length does an incoming req see
system.mem_ctrl.wrQLenPdf::14                       1                       # What write queue length does an incoming req see
system.mem_ctrl.wrQLenPdf::15                    7557                       # What write queue length does an incoming req see
system.mem_ctrl.wrQLenPdf::16                    8097                       # What write queue length does an incoming req see
system.mem_ctrl.wrQLenPdf::17                   11369                       # What write queue length does an incoming req see
system.mem_ctrl.wrQLenPdf::18                   11370                       # What write queue length does an incoming req see
system.mem_ctrl.wrQLenPdf::19                   11370                       # What write queue length does an incoming req see
system.mem_ctrl.wrQLenPdf::20                   11367                       # What write queue length does an incoming req see
system.mem_ctrl.wrQLenPdf::21                   11369                       # What write queue length does an incoming req see
system.mem_ctrl.wrQLenPdf::22                   11370                       # What write queue length does an incoming req see
system.mem_ctrl.wrQLenPdf::23                   11367                       # What write queue length does an incoming req see
system.mem_ctrl.wrQLenPdf::24                   11367                       # What write queue length does an incoming req see
system.mem_ctrl.wrQLenPdf::25                   11366                       # What write queue length does an incoming req see
system.mem_ctrl.wrQLenPdf::26                   11366                       # What write queue length does an incoming req see
system.mem_ctrl.wrQLenPdf::27                   11366                       # What write queue length does an incoming req see
system.mem_ctrl.wrQLenPdf::28                   11366                       # What write queue length does an incoming req see
system.mem_ctrl.wrQLenPdf::29                   11366                       # What write queue length does an incoming req see
system.mem_ctrl.wrQLenPdf::30                   11366                       # What write queue length does an incoming req see
system.mem_ctrl.wrQLenPdf::31                   11366                       # What write queue length does an incoming req see
system.mem_ctrl.wrQLenPdf::32                   11366                       # What write queue length does an incoming req see
system.mem_ctrl.wrQLenPdf::33                       2                       # What write queue length does an incoming req see
system.mem_ctrl.wrQLenPdf::34                       0                       # What write queue length does an incoming req see
system.mem_ctrl.wrQLenPdf::35                       0                       # What write queue length does an incoming req see
system.mem_ctrl.wrQLenPdf::36                       0                       # What write queue length does an incoming req see
system.mem_ctrl.wrQLenPdf::37                       0                       # What write queue length does an incoming req see
system.mem_ctrl.wrQLenPdf::38                       0                       # What write queue length does an incoming req see
system.mem_ctrl.wrQLenPdf::39                       0                       # What write queue length does an incoming req see
system.mem_ctrl.wrQLenPdf::40                       0                       # What write queue length does an incoming req see
system.mem_ctrl.wrQLenPdf::41                       0                       # What write queue length does an incoming req see
system.mem_ctrl.wrQLenPdf::42                       0                       # What write queue length does an incoming req see
system.mem_ctrl.wrQLenPdf::43                       0                       # What write queue length does an incoming req see
system.mem_ctrl.wrQLenPdf::44                       0                       # What write queue length does an incoming req see
system.mem_ctrl.wrQLenPdf::45                       0                       # What write queue length does an incoming req see
system.mem_ctrl.wrQLenPdf::46                       0                       # What write queue length does an incoming req see
system.mem_ctrl.wrQLenPdf::47                       0                       # What write queue length does an incoming req see
system.mem_ctrl.wrQLenPdf::48                       0                       # What write queue length does an incoming req see
system.mem_ctrl.wrQLenPdf::49                       0                       # What write queue length does an incoming req see
system.mem_ctrl.wrQLenPdf::50                       0                       # What write queue length does an incoming req see
system.mem_ctrl.wrQLenPdf::51                       0                       # What write queue length does an incoming req see
system.mem_ctrl.wrQLenPdf::52                       0                       # What write queue length does an incoming req see
system.mem_ctrl.wrQLenPdf::53                       0                       # What write queue length does an incoming req see
system.mem_ctrl.wrQLenPdf::54                       0                       # What write queue length does an incoming req see
system.mem_ctrl.wrQLenPdf::55                       0                       # What write queue length does an incoming req see
system.mem_ctrl.wrQLenPdf::56                       0                       # What write queue length does an incoming req see
system.mem_ctrl.wrQLenPdf::57                       0                       # What write queue length does an incoming req see
system.mem_ctrl.wrQLenPdf::58                       0                       # What write queue length does an incoming req see
system.mem_ctrl.wrQLenPdf::59                       0                       # What write queue length does an incoming req see
system.mem_ctrl.wrQLenPdf::60                       0                       # What write queue length does an incoming req see
system.mem_ctrl.wrQLenPdf::61                       0                       # What write queue length does an incoming req see
system.mem_ctrl.wrQLenPdf::62                       0                       # What write queue length does an incoming req see
system.mem_ctrl.wrQLenPdf::63                       0                       # What write queue length does an incoming req see
system.mem_ctrl.rdPerTurnAround::samples        11366                       # Reads before turning the bus around for writes
system.mem_ctrl.rdPerTurnAround::mean       35.718459                       # Reads before turning the bus around for writes
system.mem_ctrl.rdPerTurnAround::gmean      28.830309                       # Reads before turning the bus around for writes
system.mem_ctrl.rdPerTurnAround::stdev      52.699843                       # Reads before turning the bus around for writes
system.mem_ctrl.rdPerTurnAround::0-255          11313     99.53%     99.53% # Reads before turning the bus around for writes
system.mem_ctrl.rdPerTurnAround::256-511           52      0.46%     99.99% # Reads before turning the bus around for writes
system.mem_ctrl.rdPerTurnAround::4352-4607            1      0.01%    100.00% # Reads before turning the bus around for writes
system.mem_ctrl.rdPerTurnAround::total          11366                       # Reads before turning the bus around for writes
system.mem_ctrl.wrPerTurnAround::samples        11366                       # Writes before turning the bus around for reads
system.mem_ctrl.wrPerTurnAround::mean       17.378409                       # Writes before turning the bus around for reads
system.mem_ctrl.wrPerTurnAround::gmean      17.354297                       # Writes before turning the bus around for reads
system.mem_ctrl.wrPerTurnAround::stdev       0.902237                       # Writes before turning the bus around for reads
system.mem_ctrl.wrPerTurnAround::16              3272     28.79%     28.79% # Writes before turning the bus around for reads
system.mem_ctrl.wrPerTurnAround::17               538      4.73%     33.52% # Writes before turning the bus around for reads
system.mem_ctrl.wrPerTurnAround::18              7539     66.33%     99.85% # Writes before turning the bus around for reads
system.mem_ctrl.wrPerTurnAround::19                17      0.15%    100.00% # Writes before turning the bus around for reads
system.mem_ctrl.wrPerTurnAround::total          11366                       # Writes before turning the bus around for reads
system.mem_ctrl.bytesReadWrQ                   651712                       # Total number of bytes read from write queue
system.mem_ctrl.bytesReadSys                 26637440                       # Total read bytes from the system interface side
system.mem_ctrl.bytesWrittenSys              12643072                       # Total written bytes from the system interface side
system.mem_ctrl.avgRdBWSys                      11.48                       # Average system read bandwidth in MiByte/s
system.mem_ctrl.avgWrBWSys                       5.45                       # Average system write bandwidth in MiByte/s
system.mem_ctrl.totGap                   2320023858000                       # Total gap between requests
system.mem_ctrl.avgGap                     3780030.33                       # Average gap between requests
system.mem_ctrl.requestorReadBytes::.cpu.inst      3620416                       # Per-requestor bytes read from memory
system.mem_ctrl.requestorReadBytes::.cpu.data     22365312                       # Per-requestor bytes read from memory
system.mem_ctrl.requestorWriteBytes::.writebacks     12641472                       # Per-requestor bytes write to memory
[...]
system.mem_ctrl.requestorReadRate::.cpu.data 9640121.134628335014                       # Per-requestor bytes read from memory rate (Bytes/sec)
system.mem_ctrl.requestorWriteRate::.writebacks 5448854.073666055687                       # Per-requestor bytes write to memory rate (Bytes/sec)
system.mem_ctrl.requestorReadAccesses::.cpu.inst        56569                       # Per-requestor read serviced memory accesses
system.mem_ctrl.requestorReadAccesses::.cpu.data       359641                       # Per-requestor read serviced memory accesses
system.mem_ctrl.requestorWriteAccesses::.writebacks       197548                       # Per-requestor write serviced memory accesses
system.mem_ctrl.requestorReadTotalLat::.cpu.inst   1436281250                       # Per-requestor read total memory access latency
system.mem_ctrl.requestorReadTotalLat::.cpu.data  10288711750                       # Per-requestor read total memory access latency
system.mem_ctrl.requestorWriteTotalLat::.writebacks 54745205891000                       # Per-requestor write total memory access latency
system.mem_ctrl.requestorReadAvgLat::.cpu.inst     25389.90                       # Per-requestor read average memory access latency
system.mem_ctrl.requestorReadAvgLat::.cpu.data     28608.28                       # Per-requestor read average memory access latency
system.mem_ctrl.requestorWriteAvgLat::.writebacks 277123564.35                       # Per-requestor write average memory access latency
system.mem_ctrl.dram.bytes_read::.cpu.inst      3620416                       # Number of bytes read from this memory
system.mem_ctrl.dram.bytes_read::.cpu.data     23017024                       # Number of bytes read from this memory
system.mem_ctrl.dram.bytes_read::total       26637440                       # Number of bytes read from this memory
system.mem_ctrl.dram.bytes_inst_read::.cpu.inst      3620416                       # Number of instructions bytes read from this memory
system.mem_ctrl.dram.bytes_inst_read::total      3620416                       # Number of instructions bytes read from this memory
system.mem_ctrl.dram.bytes_written::.writebacks     12643072                       # Number of bytes written to this memory
system.mem_ctrl.dram.bytes_written::total     12643072                       # Number of bytes written to this memory
system.mem_ctrl.dram.num_reads::.cpu.inst        56569                       # Number of read requests responded to by this memory
system.mem_ctrl.dram.num_reads::.cpu.data       359641                       # Number of read requests responded to by this memory
system.mem_ctrl.dram.num_reads::total          416210                       # Number of read requests responded to by this memory
system.mem_ctrl.dram.num_writes::.writebacks       197548                       # Number of write requests responded to by this memory
system.mem_ctrl.dram.num_writes::total         197548                       # Number of write requests responded to by this memory
system.mem_ctrl.dram.bw_read::.cpu.inst       1560508                       # Total read bandwidth from this memory (bytes/s)
system.mem_ctrl.dram.bw_read::.cpu.data       9921029                       # Total read bandwidth from this memory (bytes/s)
system.mem_ctrl.dram.bw_read::total          11481537                       # Total read bandwidth from this memory (bytes/s)
system.mem_ctrl.dram.bw_inst_read::.cpu.inst      1560508                       # Instruction read bandwidth from this memory (bytes/s)
system.mem_ctrl.dram.bw_inst_read::total      1560508                       # Instruction read bandwidth from this memory (bytes/s)
system.mem_ctrl.dram.bw_write::.writebacks      5449544                       # Write bandwidth from this memory (bytes/s)
system.mem_ctrl.dram.bw_write::total          5449544                       # Write bandwidth from this memory (bytes/s)
system.mem_ctrl.dram.bw_total::.writebacks      5449544                       # Total bandwidth to/from this memory (bytes/s)
system.mem_ctrl.dram.bw_total::.cpu.inst      1560508                       # Total bandwidth to/from this memory (bytes/s)
system.mem_ctrl.dram.bw_total::.cpu.data      9921029                       # Total bandwidth to/from this memory (bytes/s)
system.mem_ctrl.dram.bw_total::total         16931080                       # Total bandwidth to/from this memory (bytes/s)
system.mem_ctrl.dram.readBursts                406027                       # Number of DRAM read bursts
system.mem_ctrl.dram.writeBursts               197523                       # Number of DRAM write bursts
system.mem_ctrl.dram.perBankRdBursts::0         22814                       # Per bank write bursts
system.mem_ctrl.dram.perBankRdBursts::1         21919                       # Per bank write bursts
system.mem_ctrl.dram.perBankRdBursts::2         17909                       # Per bank write bursts
system.mem_ctrl.dram.perBankRdBursts::3         21501                       # Per bank write bursts
system.mem_ctrl.dram.perBankRdBursts::4         26624                       # Per bank write bursts
system.mem_ctrl.dram.perBankRdBursts::5         31321                       # Per bank write bursts
system.mem_ctrl.dram.perBankRdBursts::6         23261                       # Per bank write bursts
system.mem_ctrl.dram.perBankRdBursts::7         29980                       # Per bank write bursts
system.mem_ctrl.dram.perBankRdBursts::8         28065                       # Per bank write bursts
system.mem_ctrl.dram.perBankRdBursts::9         30416                       # Per bank write bursts
system.mem_ctrl.dram.perBankRdBursts::10        27583                       # Per bank write bursts
system.mem_ctrl.dram.perBankRdBursts::11        32538                       # Per bank write bursts
system.mem_ctrl.dram.perBankRdBursts::12        23299                       # Per bank write bursts
system.mem_ctrl.dram.perBankRdBursts::13        26965                       # Per bank write bursts
system.mem_ctrl.dram.perBankRdBursts::14        18527                       # Per bank write bursts
system.mem_ctrl.dram.perBankRdBursts::15        23305                       # Per bank write bursts
system.mem_ctrl.dram.perBankWrBursts::0         12451                       # Per bank write bursts
system.mem_ctrl.dram.perBankWrBursts::1          9192                       # Per bank write bursts
system.mem_ctrl.dram.perBankWrBursts::2          7080                       # Per bank write bursts
system.mem_ctrl.dram.perBankWrBursts::3          9595                       # Per bank write bursts
system.mem_ctrl.dram.perBankWrBursts::4         11138                       # Per bank write bursts
system.mem_ctrl.dram.perBankWrBursts::5         20011                       # Per bank write bursts
system.mem_ctrl.dram.perBankWrBursts::6         14239                       # Per bank write bursts
system.mem_ctrl.dram.perBankWrBursts::7         17691                       # Per bank write bursts
system.mem_ctrl.dram.perBankWrBursts::8         15196                       # Per bank write bursts
system.mem_ctrl.dram.perBankWrBursts::9         17385                       # Per bank write bursts
system.mem_ctrl.dram.perBankWrBursts::10        11332                       # Per bank write bursts
system.mem_ctrl.dram.perBankWrBursts::11         9969                       # Per bank write bursts
system.mem_ctrl.dram.perBankWrBursts::12        11485                       # Per bank write bursts
system.mem_ctrl.dram.perBankWrBursts::13        10812                       # Per bank write bursts
system.mem_ctrl.dram.perBankWrBursts::14         8496                       # Per bank write bursts
system.mem_ctrl.dram.perBankWrBursts::15        11451                       # Per bank write bursts
system.mem_ctrl.dram.totQLat               4111986750                       # Total ticks spent queuing
system.mem_ctrl.dram.totBusLat             2030135000                       # Total ticks spent in databus transfers
system.mem_ctrl.dram.totMemAccLat         11724993000                       # Total ticks spent from burst creation until serviced by the DRAM
system.mem_ctrl.dram.avgQLat                 10127.37                       # Average queueing delay per DRAM burst
system.mem_ctrl.dram.avgBusLat                5000.00                       # Average bus latency per DRAM burst
system.mem_ctrl.dram.avgMemAccLat            28877.37                       # Average memory access latency per DRAM burst
system.mem_ctrl.dram.readRowHits               265676                       # Number of row buffer hits during reads
system.mem_ctrl.dram.writeRowHits              164329                       # Number of row buffer hits during writes
system.mem_ctrl.dram.readRowHitRate             65.43                       # Row buffer hit rate for reads
system.mem_ctrl.dram.writeRowHitRate            83.19                       # Row buffer hit rate for writes
system.mem_ctrl.dram.bytesPerActivate::samples       173543                       # Bytes accessed per row activation
system.mem_ctrl.dram.bytesPerActivate::mean   222.576307                       # Bytes accessed per row activation
system.mem_ctrl.dram.bytesPerActivate::gmean   138.028866                       # Bytes accessed per row activation
system.mem_ctrl.dram.bytesPerActivate::stdev   256.306273                       # Bytes accessed per row activation
system.mem_ctrl.dram.bytesPerActivate::0-127        85475     49.25%     49.25% # Bytes accessed per row activation
system.mem_ctrl.dram.bytesPerActivate::128-255        36443     21.00%     70.25% # Bytes accessed per row activation
system.mem_ctrl.dram.bytesPerActivate::256-383        17758     10.23%     80.48% # Bytes accessed per row activation
system.mem_ctrl.dram.bytesPerActivate::384-511        12227      7.05%     87.53% # Bytes accessed per row activation
system.mem_ctrl.dram.bytesPerActivate::512-639         4965      2.86%     90.39% # Bytes accessed per row activation
system.mem_ctrl.dram.bytesPerActivate::640-767         3546      2.04%     92.43% # Bytes accessed per row activation
system.mem_ctrl.dram.bytesPerActivate::768-895         2762      1.59%     94.03% # Bytes accessed per row activation
system.mem_ctrl.dram.bytesPerActivate::896-1023         2134      1.23%     95.26% # Bytes accessed per row activation
system.mem_ctrl.dram.bytesPerActivate::1024-1151         8233      4.74%    100.00% # Bytes accessed per row activation
system.mem_ctrl.dram.bytesPerActivate::total       173543                       # Bytes accessed per row activation
system.mem_ctrl.dram.bytesRead               25985728                       # Total number of bytes read from DRAM
system.mem_ctrl.dram.bytesWritten            12641472                       # Total number of bytes written to DRAM
system.mem_ctrl.dram.avgRdBW                11.200629                       # Average DRAM read bandwidth in MiBytes/s
system.mem_ctrl.dram.avgWrBW                 5.448854                       # Average DRAM write bandwidth in MiBytes/s
system.mem_ctrl.dram.peakBW                  12800.00                       # Theoretical peak bandwidth in MiByte/s
system.mem_ctrl.dram.busUtil                     0.13                       # Data bus utilization in percentage
system.mem_ctrl.dram.busUtilRead                 0.09                       # Data bus utilization in percentage for reads
system.mem_ctrl.dram.busUtilWrite                0.04                       # Data bus utilization in percentage for writes
system.mem_ctrl.dram.pageHitRate                71.25                       # Row buffer hit rate, read and write combined
system.mem_ctrl.dram.power_state.pwrStateResidencyTicks::UNDEFINED 2320023959000                       # Cumulative time (in ticks) in various power states
system.mem_ctrl.dram.rank0.actEnergy        575940960                       # Energy for activate commands per rank (pJ)
system.mem_ctrl.dram.rank0.preEnergy        306116085                       # Energy for precharge commands per rank (pJ)
system.mem_ctrl.dram.rank0.readEnergy      1394649060                       # Energy for read commands per rank (pJ)
system.mem_ctrl.dram.rank0.writeEnergy      529292340                       # Energy for write commands per rank (pJ)
system.mem_ctrl.dram.rank0.refreshEnergy 183140592960.000031                       # Energy for refresh commands per rank (pJ)
system.mem_ctrl.dram.rank0.actBackEnergy 117751489770                       # Energy for active background per rank (pJ)
system.mem_ctrl.dram.rank0.preBackEnergy 791730051360                       # Energy for precharge background per rank (pJ)
system.mem_ctrl.dram.rank0.actPowerDownEnergy            0                       # Energy for active power-down per rank (pJ)
system.mem_ctrl.dram.rank0.prePowerDownEnergy            0                       # Energy for precharge power-down per rank (pJ)
system.mem_ctrl.dram.rank0.selfRefreshEnergy            0                       # Energy for self refresh per rank (pJ)
system.mem_ctrl.dram.rank0.totalEnergy   1095428132535                       # Total energy per rank (pJ)
system.mem_ctrl.dram.rank0.averagePower    472.162422                       # Core power per rank (mW)
system.mem_ctrl.dram.rank0.totalIdleTime            0                       # Total Idle time Per DRAM Rank
system.mem_ctrl.dram.rank0.pwrStateTime::IDLE 2057173728500                       # Time in different power states
system.mem_ctrl.dram.rank0.pwrStateTime::REF  77470640000                       # Time in different power states
system.mem_ctrl.dram.rank0.pwrStateTime::SREF            0                       # Time in different power states
system.mem_ctrl.dram.rank0.pwrStateTime::PRE_PDN            0                       # Time in different power states
system.mem_ctrl.dram.rank0.pwrStateTime::ACT 185379590500                       # Time in different power states
system.mem_ctrl.dram.rank0.pwrStateTime::ACT_PDN            0                       # Time in different power states
system.mem_ctrl.dram.rank1.actEnergy        663170340                       # Energy for activate commands per rank (pJ)
system.mem_ctrl.dram.rank1.preEnergy        352479600                       # Energy for precharge commands per rank (pJ)
system.mem_ctrl.dram.rank1.readEnergy      1504383720                       # Energy for read commands per rank (pJ)
system.mem_ctrl.dram.rank1.writeEnergy      501777720                       # Energy for write commands per rank (pJ)
system.mem_ctrl.dram.rank1.refreshEnergy 183140592960.000031                       # Energy for refresh commands per rank (pJ)
system.mem_ctrl.dram.rank1.actBackEnergy 112975792080                       # Energy for active background per rank (pJ)
system.mem_ctrl.dram.rank1.preBackEnergy 795751691520                       # Energy for precharge background per rank (pJ)
system.mem_ctrl.dram.rank1.actPowerDownEnergy            0                       # Energy for active power-down per rank (pJ)
system.mem_ctrl.dram.rank1.prePowerDownEnergy            0                       # Energy for precharge power-down per rank (pJ)
system.mem_ctrl.dram.rank1.selfRefreshEnergy            0                       # Energy for self refresh per rank (pJ)
system.mem_ctrl.dram.rank1.totalEnergy   1094889887940                       # Total energy per rank (pJ)
system.mem_ctrl.dram.rank1.averagePower    471.930423                       # Core power per rank (mW)
system.mem_ctrl.dram.rank1.totalIdleTime            0                       # Total Idle time Per DRAM Rank
system.mem_ctrl.dram.rank1.pwrStateTime::IDLE 2067667229500                       # Time in different power states
system.mem_ctrl.dram.rank1.pwrStateTime::REF  77470640000                       # Time in different power states
system.mem_ctrl.dram.rank1.pwrStateTime::SREF            0                       # Time in different power states
system.mem_ctrl.dram.rank1.pwrStateTime::PRE_PDN            0                       # Time in different power states
system.mem_ctrl.dram.rank1.pwrStateTime::ACT 174886089500                       # Time in different power states
system.mem_ctrl.dram.rank1.pwrStateTime::ACT_PDN            0                       # Time in different power states
system.mem_ctrl.power_state.pwrStateResidencyTicks::UNDEFINED 2320023959000                       # Cumulative time (in ticks) in various power states
system.membus.trans_dist::ReadResp             303081                       # Transaction distribution
system.membus.trans_dist::WritebackDirty       197548                       # Transaction distribution
system.membus.trans_dist::CleanEvict           214530                       # Transaction distribution
system.membus.trans_dist::ReadExReq            113129                       # Transaction distribution
system.membus.trans_dist::ReadExResp           113129                       # Transaction distribution
system.membus.trans_dist::ReadSharedReq        303081                       # Transaction distribution
system.membus.pkt_count_system.l2cache.mem_side_port::system.mem_ctrl.port      1244498                       # Packet count per connected requestor and responder (bytes)
system.membus.pkt_count_system.l2cache.mem_side_port::total      1244498                       # Packet count per connected requestor and responder (bytes)
system.membus.pkt_count::total                1244498                       # Packet count per connected requestor and responder (bytes)
system.membus.pkt_size_system.l2cache.mem_side_port::system.mem_ctrl.port     39280512                       # Cumulative packet size per connected requestor and responder (bytes)
system.membus.pkt_size_system.l2cache.mem_side_port::total     39280512                       # Cumulative packet size per connected requestor and responder (bytes)
system.membus.pkt_size::total                39280512                       # Cumulative packet size per connected requestor and responder (bytes)
system.membus.snoops                                0                       # Total snoops (count)
system.membus.snoopTraffic                          0                       # Total snoop traffic (bytes)
system.membus.snoop_fanout::samples            416210                       # Request fanout histogram
system.membus.snoop_fanout::mean                    0                       # Request fanout histogram
system.membus.snoop_fanout::stdev                   0                       # Request fanout histogram
system.membus.snoop_fanout::underflows              0      0.00%      0.00% # Request fanout histogram
system.membus.snoop_fanout::0                  416210    100.00%    100.00% # Request fanout histogram
system.membus.snoop_fanout::1                       0      0.00%    100.00% # Request fanout histogram
system.membus.snoop_fanout::overflows               0      0.00%    100.00% # Request fanout histogram
system.membus.snoop_fanout::min_value               0                       # Request fanout histogram
system.membus.snoop_fanout::max_value               0                       # Request fanout histogram
system.membus.snoop_fanout::total              416210                       # Request fanout histogram
system.membus.power_state.pwrStateResidencyTicks::UNDEFINED 2320023959000                       # Cumulative time (in ticks) in various power states
system.membus.reqLayer2.occupancy          1618480000                       # Layer occupancy (ticks)
system.membus.reqLayer2.utilization               0.1                       # Layer utilization (%)
system.membus.respLayer0.occupancy         2219438000                       # Layer occupancy (ticks)
system.membus.respLayer0.utilization              0.1                       # Layer utilization (%)

---------- End Simulation Statistics   ----------
