
---------- Begin Simulation Statistics ----------
final_tick                               1712681122000                       # Number of ticks from beginning of simulation (restored from checkpoints and never reset)
host_inst_rate                                 418536                       # Simulator instruction rate (inst/s)
host_mem_usage                                 664132                       # Number of bytes of host memory used
host_op_rate                                   768066                       # Simulator op (including micro ops) rate (op/s)
host_seconds                                   710.05                       # Real time elapsed on the host
host_tick_rate                             2412061449                       # Simulator tick rate (ticks/s)
sim_freq                                 1000000000000                       # Frequency of simulated ticks
sim_insts                                   297180970                       # Number of instructions simulated
sim_ops                                     545364511                       # Number of ops (including micro ops) simulated
sim_seconds                                  1.712681                       # Number of seconds simulated
sim_ticks                                1712681122000                       # Number of ticks simulated
system.cpu.Branches                          49473261                       # Number of branches fetched
system.cpu.committedInsts                   297180970                       # Number of instructions committed
system.cpu.committedOps                     545364511                       # Number of ops (including micro ops) committed
system.cpu.idle_fraction                     0.000000                       # Percentage of idle cycles
system.cpu.not_idle_fraction                 1.000000                       # Percentage of non-idle cycles
system.cpu.numCycles                       1712681122                       # number of cpu cycles simulated
system.cpu.numWorkItemsCompleted                    0                       # number of work items this cpu completed
system.cpu.numWorkItemsStarted                      0                       # number of work items this cpu started
system.cpu.num_busy_cycles               1712681121.999000                       # Number of busy cycles
system.cpu.num_cc_register_reads            252086541                       # number of times the CC registers were read
system.cpu.num_cc_register_writes           180867025                       # number of times the CC registers were written
system.cpu.num_conditional_control_insts     49270088                       # number of instructions that are conditional controls
system.cpu.num_fp_alu_accesses              184508630                       # Number of float alu accesses
system.cpu.num_fp_insts                     184508630                       # number of float instructions
system.cpu.num_fp_register_reads            225216959                       # number of times the floating registers were read
system.cpu.num_fp_register_writes           180499649                       # number of times the floating registers were written
system.cpu.num_func_calls                       81592                       # number of times a function call or return occured
system.cpu.num_idle_cycles                   0.001000                       # Number of idle cycles
system.cpu.num_int_alu_accesses             435906592                       # Number of integer alu accesses
system.cpu.num_int_insts                    435906592                       # number of integer instructions
system.cpu.num_int_register_reads           778692922                       # number of times the integer registers were read
system.cpu.num_int_register_writes          309382644                       # number of times the integer registers were written
system.cpu.num_load_insts                   111390466                       # Number of load instructions
system.cpu.num_mem_refs                     116747130                       # number of memory refs
system.cpu.num_store_insts                    5356664                       # Number of store instructions
system.cpu.num_vec_alu_accesses                     0                       # Number of vector alu accesses
system.cpu.num_vec_insts                            0                       # number of vector instructions
system.cpu.num_vec_register_reads                   0                       # number of times the vector registers were read
system.cpu.num_vec_register_writes                  0                       # number of times the vector registers were written
system.cpu.op_class::No_OpClass                710623      0.13%      0.13% # Class of executed instruction
system.cpu.op_class::IntAlu                 322694248     59.17%     59.30% # Class of executed instruction
system.cpu.op_class::IntMult                    30102      0.01%     59.31% # Class of executed instruction
system.cpu.op_class::IntDiv                       616      0.00%     59.31% # Class of executed instruction
system.cpu.op_class::FloatAdd                33737834      6.19%     65.49% # Class of executed instruction
system.cpu.op_class::FloatCmp                       0      0.00%     65.49% # Class of executed instruction
system.cpu.op_class::FloatCvt                       0      0.00%     65.49% # Class of executed instruction
system.cpu.op_class::FloatMult                      0      0.00%     65.49% # Class of executed instruction
system.cpu.op_class::FloatMultAcc                   0      0.00%     65.49% # Class of executed instruction
system.cpu.op_class::FloatDiv                       0      0.00%     65.49% # Class of executed instruction
system.cpu.op_class::FloatMisc                      0      0.00%     65.49% # Class of executed instruction
system.cpu.op_class::FloatSqrt                      0      0.00%     65.49% # Class of executed instruction
system.cpu.op_class::SimdAdd                    76762      0.01%     65.51% # Class of executed instruction
system.cpu.op_class::SimdAddAcc                     0      0.00%     65.51% # Class of executed instruction
system.cpu.op_class::SimdAlu                    60252      0.01%     65.52% # Class of executed instruction
system.cpu.op_class::SimdCmp                       24      0.00%     65.52% # Class of executed instruction
system.cpu.op_class::SimdCvt                     1170      0.00%     65.52% # Class of executed instruction
system.cpu.op_class::SimdMisc                  125019      0.02%     65.54% # Class of executed instruction
system.cpu.op_class::SimdMult                       0      0.00%     65.54% # Class of executed instruction
system.cpu.op_class::SimdMultAcc                    0      0.00%     65.54% # Class of executed instruction
system.cpu.op_class::SimdShift                      0      0.00%     65.54% # Class of executed instruction
system.cpu.op_class::SimdShiftAcc                   0      0.00%     65.54% # Class of executed instruction
system.cpu.op_class::SimdDiv                        0      0.00%     65.54% # Class of executed instruction
system.cpu.op_class::SimdSqrt                       0      0.00%     65.54% # Class of executed instruction
system.cpu.op_class::SimdFloatAdd            35512541      6.51%     72.05% # Class of executed instruction
system.cpu.op_class::SimdFloatAlu                   0      0.00%     72.05% # Class of executed instruction
system.cpu.op_class::SimdFloatCmp                   0      0.00%     72.05% # Class of executed instruction
system.cpu.op_class::SimdFloatCvt              101637      0.02%     72.07% # Class of executed instruction
system.cpu.op_class::SimdFloatDiv                 835      0.00%     72.07% # Class of executed instruction
system.cpu.op_class::SimdFloatMisc                  0      0.00%     72.07% # Class of executed instruction
system.cpu.op_class::SimdFloatMult           35565797      6.52%     78.59% # Class of executed instruction
system.cpu.op_class::SimdFloatMultAcc               0      0.00%     78.59% # Class of executed instruction
system.cpu.op_class::SimdFloatSqrt                 32      0.00%     78.59% # Class of executed instruction
system.cpu.op_class::SimdReduceAdd                  0      0.00%     78.59% # Class of executed instruction
system.cpu.op_class::SimdReduceAlu                  0      0.00%     78.59% # Class of executed instruction
system.cpu.op_class::SimdReduceCmp                  0      0.00%     78.59% # Class of executed instruction
system.cpu.op_class::SimdFloatReduceAdd             0      0.00%     78.59% # Class of executed instruction
system.cpu.op_class::SimdFloatReduceCmp             0      0.00%     78.59% # Class of executed instruction
system.cpu.op_class::SimdAes                        0      0.00%     78.59% # Class of executed instruction
system.cpu.op_class::SimdAesMix                     0      0.00%     78.59% # Class of executed instruction
system.cpu.op_class::SimdSha1Hash                   0      0.00%     78.59% # Class of executed instruction
system.cpu.op_class::SimdSha1Hash2                  0      0.00%     78.59% # Class of executed instruction
system.cpu.op_class::SimdSha256Hash                 0      0.00%     78.59% # Class of executed instruction
system.cpu.op_class::SimdSha256Hash2                0      0.00%     78.59% # Class of executed instruction
system.cpu.op_class::SimdShaSigma2                  0      0.00%     78.59% # Class of executed instruction
system.cpu.op_class::SimdShaSigma3                  0      0.00%     78.59% # Class of executed instruction
system.cpu.op_class::SimdPredAlu                    0      0.00%     78.59% # Class of executed instruction
system.cpu.op_class::MemRead                 39670283      7.27%     85.87% # Class of executed instruction
system.cpu.op_class::MemWrite                 1421533      0.26%     86.13% # Class of executed instruction
system.cpu.op_class::FloatMemRead            71720183     13.15%     99.28% # Class of executed instruction
system.cpu.op_class::FloatMemWrite            3935131      0.72%    100.00% # Class of executed instruction
system.cpu.op_class::IprAccess                      0      0.00%    100.00% # Class of executed instruction
system.cpu.op_class::InstPrefetch                   0      0.00%    100.00% # Class of executed instruction
system.cpu.op_class::total                  545364622                       # Class of executed instruction
system.cpu.workload.numSyscalls                    87                       # Number of system calls
system.l2bus.snoop_filter.hit_multi_requests            0                       # Number of requests hitting in the snoop filter with multiple (>1) holders of the requested data.
system.l2bus.snoop_filter.hit_multi_snoops            0                       # Number of snoops hitting in the snoop filter with multiple (>1) holders of the requested data.
system.l2bus.snoop_filter.hit_single_requests      6626200                       # Number of requests hitting in the snoop filter with a single holder of the requested data.
system.l2bus.snoop_filter.hit_single_snoops      1368147                       # Number of snoops hitting in the snoop filter with a single holder of the requested data.
system.l2bus.snoop_filter.tot_requests       13253680                       # Total number of requests made to the snoop filter.
system.l2bus.snoop_filter.tot_snoops          1368147                       # Total number of snoops made to the snoop filter.
system.membus.snoop_filter.hit_multi_requests            0                       # Number of requests hitting in the snoop filter with multiple (>1) holders of the requested data.
system.membus.snoop_filter.hit_multi_snoops            0                       # Number of snoops hitting in the snoop filter with multiple (>1) holders of the requested data.
system.membus.snoop_filter.hit_single_requests      6566822                       # Number of requests hitting in the snoop filter with a single holder of the requested data.
system.membus.snoop_filter.hit_single_snoops            0                       # Number of snoops hitting in the snoop filter with a single holder of the requested data.
system.membus.snoop_filter.tot_requests      13136020                       # Total number of requests made to the snoop filter.
system.membus.snoop_filter.tot_snoops               0                       # Total number of snoops made to the snoop filter.
system.clk_domain.clock                          1000                       # Clock period in ticks
system.clk_domain.voltage_domain.voltage            1                       # Voltage in Volts
system.cpu.dcache.demand_hits::.cpu.data    110150241                       # number of demand (read+write) hits
system.cpu.dcache.demand_hits::total        110150241                       # number of demand (read+write) hits
system.cpu.dcache.overall_hits::.cpu.data    110150241                       # number of overall hits
system.cpu.dcache.overall_hits::total       110150241                       # number of overall hits
system.cpu.dcache.demand_misses::.cpu.data      6608747                       # number of demand (read+write) misses
system.cpu.dcache.demand_misses::total        6608747                       # number of demand (read+write) misses
system.cpu.dcache.overall_misses::.cpu.data      6608747                       # number of overall misses
system.cpu.dcache.overall_misses::total       6608747                       # number of overall misses
system.cpu.dcache.demand_miss_latency::.cpu.data 664691994000                       # number of demand (read+write) miss cycles
system.cpu.dcache.demand_miss_latency::total 664691994000                       # number of demand (read+write) miss cycles
system.cpu.dcache.overall_miss_latency::.cpu.data 664691994000                       # number of overall miss cycles
system.cpu.dcache.overall_miss_latency::total 664691994000                       # number of overall miss cycles
system.cpu.dcache.demand_accesses::.cpu.data    116758988                       # number of demand (read+write) accesses
system.cpu.dcache.demand_accesses::total    116758988                       # number of demand (read+write) accesses
system.cpu.dcache.overall_accesses::.cpu.data    116758988                       # number of overall (read+write) accesses
system.cpu.dcache.overall_accesses::total    116758988                       # number of overall (read+write) accesses
system.cpu.dcache.demand_miss_rate::.cpu.data     0.056602                       # miss rate for demand accesses
system.cpu.dcache.demand_miss_rate::total     0.056602                       # miss rate for demand accesses
system.cpu.dcache.overall_miss_rate::.cpu.data     0.056602                       # miss rate for overall accesses
system.cpu.dcache.overall_miss_rate::total     0.056602                       # miss rate for overall accesses
system.cpu.dcache.demand_avg_miss_latency::.cpu.data 100577.612367                       # average overall miss latency
system.cpu.dcache.demand_avg_miss_latency::total 100577.612367                       # average overall miss latency
system.cpu.dcache.overall_avg_miss_latency::.cpu.data 100577.612367                       # average overall miss latency
system.cpu.dcache.overall_avg_miss_latency::total 100577.612367                       # average overall miss latency
system.cpu.dcache.blocked_cycles::no_mshrs            0                       # number of cycles access was blocked
system.cpu.dcache.blocked_cycles::no_targets            0                       # number of cycles access was blocked
system.cpu.dcache.blocked::no_mshrs                 0                       # number of cycles access was blocked
system.cpu.dcache.blocked::no_targets               0                       # number of cycles access was blocked
system.cpu.dcache.avg_blocked_cycles::no_mshrs          nan                       # average number of cycles each access was blocked
system.cpu.dcache.avg_blocked_cycles::no_targets          nan                       # average number of cycles each access was blocked
system.cpu.dcache.writebacks::.writebacks       372481                       # number of writebacks
system.cpu.dcache.writebacks::total            372481                       # number of writebacks
system.cpu.dcache.demand_mshr_misses::.cpu.data      6608747                       # number of demand (read+write) MSHR misses
system.cpu.dcache.demand_mshr_misses::total      6608747                       # number of demand (read+write) MSHR misses
system.cpu.dcache.overall_mshr_misses::.cpu.data      6608747                       # number of overall MSHR misses
system.cpu.dcache.overall_mshr_misses::total      6608747                       # number of overall MSHR misses
system.cpu.dcache.demand_mshr_miss_latency::.cpu.data 651474500000                       # number of demand (read+write) MSHR miss cycles
system.cpu.dcache.demand_mshr_miss_latency::total 651474500000                       # number of demand (read+write) MSHR miss cycles
system.cpu.dcache.overall_mshr_miss_latency::.cpu.data 651474500000                       # number of overall MSHR miss cycles
system.cpu.dcache.overall_mshr_miss_latency::total 651474500000                       # number of overall MSHR miss cycles
system.cpu.dcache.demand_mshr_miss_rate::.cpu.data     0.056602                       # mshr miss rate for demand accesses
system.cpu.dcache.demand_mshr_miss_rate::total     0.056602                       # mshr miss rate for demand accesses
system.cpu.dcache.overall_mshr_miss_rate::.cpu.data     0.056602                       # mshr miss rate for overall accesses
system.cpu.dcache.overall_mshr_miss_rate::total     0.056602                       # mshr miss rate for overall accesses
system.cpu.dcache.demand_avg_mshr_miss_latency::.cpu.data 98577.612367                       # average overall mshr miss latency
system.cpu.dcache.demand_avg_mshr_miss_latency::total 98577.612367                       # average overall mshr miss latency
system.cpu.dcache.overall_avg_mshr_miss_latency::.cpu.data 98577.612367                       # average overall mshr miss latency
system.cpu.dcache.overall_avg_mshr_miss_latency::total 98577.612367                       # average overall mshr miss latency
system.cpu.dcache.replacements                6607723                       # number of replacements
system.cpu.dcache.ReadReq_hits::.cpu.data    104904673                       # number of ReadReq hits
system.cpu.dcache.ReadReq_hits::total       104904673                       # number of ReadReq hits
system.cpu.dcache.ReadReq_misses::.cpu.data      6490776                       # number of ReadReq misses
system.cpu.dcache.ReadReq_misses::total       6490776                       # number of ReadReq misses
system.cpu.dcache.ReadReq_miss_latency::.cpu.data 652609748000                       # number of ReadReq miss cycles
system.cpu.dcache.ReadReq_miss_latency::total 652609748000                       # number of ReadReq miss cycles
system.cpu.dcache.ReadReq_accesses::.cpu.data    111395449                       # number of ReadReq accesses(hits+misses)
system.cpu.dcache.ReadReq_accesses::total    111395449                       # number of ReadReq accesses(hits+misses)
system.cpu.dcache.ReadReq_miss_rate::.cpu.data     0.058268                       # miss rate for ReadReq accesses
system.cpu.dcache.ReadReq_miss_rate::total     0.058268                       # miss rate for ReadReq accesses
system.cpu.dcache.ReadReq_avg_miss_latency::.cpu.data 100544.179617                       # average ReadReq miss latency
system.cpu.dcache.ReadReq_avg_miss_latency::total 100544.179617                       # average ReadReq miss latency
system.cpu.dcache.ReadReq_mshr_misses::.cpu.data      6490776                       # number of ReadReq MSHR misses
system.cpu.dcache.ReadReq_mshr_misses::total      6490776                       # number of ReadReq MSHR misses
system.cpu.dcache.ReadReq_mshr_miss_latency::.cpu.data 639628196000                       # number of ReadReq MSHR miss cycles
system.cpu.dcache.ReadReq_mshr_miss_latency::total 639628196000                       # number of ReadReq MSHR miss cycles
system.cpu.dcache.ReadReq_mshr_miss_rate::.cpu.data     0.058268                       # mshr miss rate for ReadReq accesses
system.cpu.dcache.ReadReq_mshr_miss_rate::total     0.058268                       # mshr miss rate for ReadReq accesses
system.cpu.dcache.ReadReq_avg_mshr_miss_latency::.cpu.data 98544.179617                       # average ReadReq mshr miss latency
system.cpu.dcache.ReadReq_avg_mshr_miss_latency::total 98544.179617                       # average ReadReq mshr miss latency
system.cpu.dcache.WriteReq_hits::.cpu.data      5245568                       # number of WriteReq hits
system.cpu.dcache.WriteReq_hits::total        5245568                       # number of WriteReq hits
system.cpu.dcache.WriteReq_misses::.cpu.data       117971                       # number of WriteReq misses
system.cpu.dcache.WriteReq_misses::total       117971                       # number of WriteReq misses
system.cpu.dcache.WriteReq_miss_latency::.cpu.data  12082246000                       # number of WriteReq miss cycles
system.cpu.dcache.WriteReq_miss_latency::total  12082246000                       # number of WriteReq miss cycles
system.cpu.dcache.WriteReq_accesses::.cpu.data      5363539                       # number of WriteReq accesses(hits+misses)
system.cpu.dcache.WriteReq_accesses::total      5363539                       # number of WriteReq accesses(hits+misses)
system.cpu.dcache.WriteReq_miss_rate::.cpu.data     0.021995                       # miss rate for WriteReq accesses
system.cpu.dcache.WriteReq_miss_rate::total     0.021995                       # miss rate for WriteReq accesses
system.cpu.dcache.WriteReq_avg_miss_latency::.cpu.data 102417.085555                       # average WriteReq miss latency
system.cpu.dcache.WriteReq_avg_miss_latency::total 102417.085555                       # average WriteReq miss latency
system.cpu.dcache.WriteReq_mshr_misses::.cpu.data       117971                       # number of WriteReq MSHR misses
system.cpu.dcache.WriteReq_mshr_misses::total       117971                       # number of WriteReq MSHR misses
system.cpu.dcache.WriteReq_mshr_miss_latency::.cpu.data  11846304000                       # number of WriteReq MSHR miss cycles
system.cpu.dcache.WriteReq_mshr_miss_latency::total  11846304000                       # number of WriteReq MSHR miss cycles
system.cpu.dcache.WriteReq_mshr_miss_rate::.cpu.data     0.021995                       # mshr miss rate for WriteReq accesses
system.cpu.dcache.WriteReq_mshr_miss_rate::total     0.021995                       # mshr miss rate for WriteReq accesses
system.cpu.dcache.WriteReq_avg_mshr_miss_latency::.cpu.data 100417.085555                       # average WriteReq mshr miss latency
system.cpu.dcache.WriteReq_avg_mshr_miss_latency::total 100417.085555                       # average WriteReq mshr miss latency
system.cpu.dcache.power_state.pwrStateResidencyTicks::UNDEFINED 1712681122000                       # Cumulative time (in ticks) in various power states
system.cpu.dcache.tags.tagsinuse          1023.810383                       # Cycle average of tags in use
system.cpu.dcache.tags.total_refs           116758988                       # Total number of references to valid blocks.
system.cpu.dcache.tags.sampled_refs           6608747                       # Sample count of references to valid blocks.
system.cpu.dcache.tags.avg_refs             17.667341                       # Average number of references to valid blocks.
system.cpu.dcache.tags.warmup_cycle            224000                       # Cycle when the warmup percentage was hit.
system.cpu.dcache.tags.occ_blocks::.cpu.data  1023.810383                       # Average occupied blocks per requestor
system.cpu.dcache.tags.occ_percent::.cpu.data     0.999815                       # Average percentage of cache occupancy
system.cpu.dcache.tags.occ_percent::total     0.999815                       # Average percentage of cache occupancy
system.cpu.dcache.tags.occ_task_id_blocks::1024         1024                       # Occupied blocks per task id
system.cpu.dcache.tags.age_task_id_blocks_1024::0           27                       # Occupied blocks per task id
system.cpu.dcache.tags.age_task_id_blocks_1024::1          110                       # Occupied blocks per task id
system.cpu.dcache.tags.age_task_id_blocks_1024::2          807                       # Occupied blocks per task id
system.cpu.dcache.tags.age_task_id_blocks_1024::3           80                       # Occupied blocks per task id
system.cpu.dcache.tags.occ_task_id_percent::1024            1                       # Percentage of cache occupancy per task id
system.cpu.dcache.tags.tag_accesses         240126723                       # Number of tag accesses
system.cpu.dcache.tags.data_accesses        240126723                       # Number of data accesses
system.cpu.dcache.tags.power_state.pwrStateResidencyTicks::UNDEFINED 1712681122000                       # Cumulative time (in ticks) in various power states
system.cpu.dtb.rdAccesses                   111395450                       # TLB accesses on read requests
system.cpu.dtb.wrAccesses                     5363562                       # TLB accesses on write requests
system.cpu.dtb.rdMisses                        115974                       # TLB misses on read requests
system.cpu.dtb.wrMisses                          1462                       # TLB misses on write requests
system.cpu.dtb.walker.power_state.pwrStateResidencyTicks::UNDEFINED 1712681122000                       # Cumulative time (in ticks) in various power states
system.cpu.icache.demand_hits::.cpu.inst    413236051                       # number of demand (read+write) hits
system.cpu.icache.demand_hits::total        413236051                       # number of demand (read+write) hits
system.cpu.icache.overall_hits::.cpu.inst    413236051                       # number of overall hits
system.cpu.icache.overall_hits::total       413236051                       # number of overall hits
system.cpu.icache.demand_misses::.cpu.inst        18733                       # number of demand (read+write) misses
system.cpu.icache.demand_misses::total          18733                       # number of demand (read+write) misses
system.cpu.icache.overall_misses::.cpu.inst        18733                       # number of overall misses
system.cpu.icache.overall_misses::total         18733                       # number of overall misses
system.cpu.icache.demand_miss_latency::.cpu.inst   1245476000                       # number of demand (read+write) miss cycles
system.cpu.icache.demand_miss_latency::total   1245476000                       # number of demand (read+write) miss cycles
system.cpu.icache.overall_miss_latency::.cpu.inst   1245476000                       # number of overall miss cycles
system.cpu.icache.overall_miss_latency::total   1245476000                       # number of overall miss cycles
system.cpu.icache.demand_accesses::.cpu.inst    413254784                       # number of demand (read+write) accesses
system.cpu.icache.demand_accesses::total    413254784                       # number of demand (read+write) accesses
system.cpu.icache.overall_accesses::.cpu.inst    413254784                       # number of overall (read+write) accesses
system.cpu.icache.overall_accesses::total    413254784                       # number of overall (read+write) accesses
system.cpu.icache.demand_miss_rate::.cpu.inst     0.000045                       # miss rate for demand accesses
system.cpu.icache.demand_miss_rate::total     0.000045                       # miss rate for demand accesses
system.cpu.icache.overall_miss_rate::.cpu.inst     0.000045                       # miss rate for overall accesses
system.cpu.icache.overall_miss_rate::total     0.000045                       # miss rate for overall accesses
system.cpu.icache.demand_avg_miss_latency::.cpu.inst 66485.667005                       # average overall miss latency
system.cpu.icache.demand_avg_miss_latency::total 66485.667005                       # average overall miss latency
system.cpu.icache.overall_avg_miss_latency::.cpu.inst 66485.667005                       # average overall miss latency
system.cpu.icache.overall_avg_miss_latency::total 66485.667005                       # average overall miss latency
system.cpu.icache.blocked_cycles::no_mshrs            0                       # number of cycles access was blocked
system.cpu.icache.blocked_cycles::no_targets            0                       # number of cycles access was blocked
system.cpu.icache.blocked::no_mshrs                 0                       # number of cycles access was blocked
system.cpu.icache.blocked::no_targets               0                       # number of cycles access was blocked
system.cpu.icache.avg_blocked_cycles::no_mshrs          nan                       # average number of cycles each access was blocked
system.cpu.icache.avg_blocked_cycles::no_targets          nan                       # average number of cycles each access was blocked
system.cpu.icache.demand_mshr_misses::.cpu.inst        18733                       # number of demand (read+write) MSHR misses
system.cpu.icache.demand_mshr_misses::total        18733                       # number of demand (read+write) MSHR misses
system.cpu.icache.overall_mshr_misses::.cpu.inst        18733                       # number of overall MSHR misses
system.cpu.icache.overall_mshr_misses::total        18733                       # number of overall MSHR misses
system.cpu.icache.demand_mshr_miss_latency::.cpu.inst   1208010000                       # number of demand (read+write) MSHR miss cycles
system.cpu.icache.demand_mshr_miss_latency::total   1208010000                       # number of demand (read+write) MSHR miss cycles
system.cpu.icache.overall_mshr_miss_latency::.cpu.inst   1208010000                       # number of overall MSHR miss cycles
system.cpu.icache.overall_mshr_miss_latency::total   1208010000                       # number of overall MSHR miss cycles
system.cpu.icache.demand_mshr_miss_rate::.cpu.inst     0.000045                       # mshr miss rate for demand accesses
system.cpu.icache.demand_mshr_miss_rate::total     0.000045                       # mshr miss rate for demand accesses
system.cpu.icache.overall_mshr_miss_rate::.cpu.inst     0.000045                       # mshr miss rate for overall accesses
system.cpu.icache.overall_mshr_miss_rate::total     0.000045                       # mshr miss rate for overall accesses
system.cpu.icache.demand_avg_mshr_miss_latency::.cpu.inst 64485.667005                       # average overall mshr miss latency
system.cpu.icache.demand_avg_mshr_miss_latency::total 64485.667005                       # average overall mshr miss latency
system.cpu.icache.overall_avg_mshr_miss_latency::.cpu.inst 64485.667005                       # average overall mshr miss latency
system.cpu.icache.overall_avg_mshr_miss_latency::total 64485.667005                       # average overall mshr miss latency
system.cpu.icache.replacements                  18477                       # number of replacements
system.cpu.icache.ReadReq_hits::.cpu.inst    413236051                       # number of ReadReq hits
system.cpu.icache.ReadReq_hits::total       413236051                       # number of ReadReq hits
system.cpu.icache.ReadReq_misses::.cpu.inst        18733                       # number of ReadReq misses
system.cpu.icache.ReadReq_misses::total         18733                       # number of ReadReq misses
system.cpu.icache.ReadReq_miss_latency::.cpu.inst   1245476000                       # number of ReadReq miss cycles
system.cpu.icache.ReadReq_miss_latency::total   1245476000                       # number of ReadReq miss cycles
system.cpu.icache.ReadReq_accesses::.cpu.inst    413254784                       # number of ReadReq accesses(hits+misses)
system.cpu.icache.ReadReq_accesses::total    413254784                       # number of ReadReq accesses(hits+misses)
system.cpu.icache.ReadReq_miss_rate::.cpu.inst     0.000045                       # miss rate for ReadReq accesses
system.cpu.icache.ReadReq_miss_rate::total     0.000045                       # miss rate for ReadReq accesses
system.cpu.icache.ReadReq_avg_miss_latency::.cpu.inst 66485.667005                       # average ReadReq miss latency
system.cpu.icache.ReadReq_avg_miss_latency::total 66485.667005                       # average ReadReq miss latency
system.cpu.icache.ReadReq_mshr_misses::.cpu.inst        18733                       # number of ReadReq MSHR misses
system.cpu.icache.ReadReq_mshr_misses::total        18733                       # number of ReadReq MSHR misses
system.cpu.icache.ReadReq_mshr_miss_latency::.cpu.inst   1208010000                       # number of ReadReq MSHR miss cycles
system.cpu.icache.ReadReq_mshr_miss_latency::total   1208010000                       # number of ReadReq MSHR miss cycles
system.cpu.icache.ReadReq_mshr_miss_rate::.cpu.inst     0.000045                       # mshr miss rate for ReadReq accesses
system.cpu.icache.ReadReq_mshr_miss_rate::total     0.000045                       # mshr miss rate for ReadReq accesses
system.cpu.icache.ReadReq_avg_mshr_miss_latency::.cpu.inst 64485.667005                       # average ReadReq mshr miss latency
system.cpu.icache.ReadReq_avg_mshr_miss_latency::total 64485.667005                       # average ReadReq mshr miss latency
system.cpu.icache.power_state.pwrStateResidencyTicks::UNDEFINED 1712681122000                       # Cumulative time (in ticks) in various power states
system.cpu.icache.tags.tagsinuse           255.992343                       # Cycle average of tags in use
system.cpu.icache.tags.total_refs           413254784                       # Total number of references to valid blocks.
system.cpu.icache.tags.sampled_refs             18733                       # Sample count of references to valid blocks.
system.cpu.icache.tags.avg_refs          22060.256446                       # Average number of references to valid blocks.
system.cpu.icache.tags.warmup_cycle            107000                       # Cycle when the warmup percentage was hit.
system.cpu.icache.tags.occ_blocks::.cpu.inst   255.992343                       # Average occupied blocks per requestor
system.cpu.icache.tags.occ_percent::.cpu.inst     0.999970                       # Average percentage of cache occupancy
system.cpu.icache.tags.occ_percent::total     0.999970                       # Average percentage of cache occupancy
system.cpu.icache.tags.occ_task_id_blocks::1024          256                       # Occupied blocks per task id
system.cpu.icache.tags.age_task_id_blocks_1024::0           35                       # Occupied blocks per task id
system.cpu.icache.tags.age_task_id_blocks_1024::1          116                       # Occupied blocks per task id
system.cpu.icache.tags.age_task_id_blocks_1024::2           98                       # Occupied blocks per task id
system.cpu.icache.tags.age_task_id_blocks_1024::4            7                       # Occupied blocks per task id
system.cpu.icache.tags.occ_task_id_percent::1024            1                       # Percentage of cache occupancy per task id
system.cpu.icache.tags.tag_accesses         826528301                       # Number of tag accesses
system.cpu.icache.tags.data_accesses        826528301                       # Number of data accesses
system.cpu.icache.tags.power_state.pwrStateResidencyTicks::UNDEFINED 1712681122000                       # Cumulative time (in ticks) in various power states
system.cpu.interrupts.clk_domain.clock          16000                       # Clock period in ticks
system.cpu.itb.rdAccesses                           0                       # TLB accesses on read requests
system.cpu.itb.wrAccesses                   413254784                       # TLB accesses on write requests
system.cpu.itb.rdMisses                             0                       # TLB misses on read requests
system.cpu.itb.wrMisses                           110                       # TLB misses on write requests
system.cpu.itb.walker.power_state.pwrStateResidencyTicks::UNDEFINED 1712681122000                       # Cumulative time (in ticks) in various power states
system.cpu.power_state.pwrStateResidencyTicks::ON 1712681122000                       # Cumulative time (in ticks) in various power states
system.cpu.thread_0.numInsts                        0                       # Number of Instructions committed
system.cpu.thread_0.numOps                          0                       # Number of Ops committed
system.cpu.thread_0.numMemRefs                      0                       # Number of Memory References
system.l2bus.trans_dist::ReadResp             6509509                       # Transaction distribution
system.l2bus.trans_dist::WritebackDirty        711428                       # Transaction distribution
system.l2bus.trans_dist::CleanEvict          12599080                       # Transaction distribution
system.l2bus.trans_dist::ReadExReq             117971                       # Transaction distribution
system.l2bus.trans_dist::ReadExResp            117971                       # Transaction distribution
system.l2bus.trans_dist::ReadSharedReq        6509509                       # Transaction distribution
system.l2bus.pkt_count_system.cpu.icache.mem_side_port::system.l2cache.cpu_side_port        55943                       # Packet count per connected requestor and responder (bytes)
system.l2bus.pkt_count_system.cpu.dcache.mem_side_port::system.l2cache.cpu_side_port     19825217                       # Packet count per connected requestor and responder (bytes)
system.l2bus.pkt_count::total                19881160                       # Packet count per connected requestor and responder (bytes)
system.l2bus.pkt_size_system.cpu.icache.mem_side_port::system.l2cache.cpu_side_port      1198912                       # Cumulative packet size per connected requestor and responder (bytes)
system.l2bus.pkt_size_system.cpu.dcache.mem_side_port::system.l2cache.cpu_side_port    446798592                       # Cumulative packet size per connected requestor and responder (bytes)
system.l2bus.pkt_size::total                447997504                       # Cumulative packet size per connected requestor and responder (bytes)
system.l2bus.snoops                           6684308                       # Total snoops (count)
system.l2bus.snoopTraffic                    21692608                       # Total snoop traffic (bytes)
system.l2bus.snoop_fanout::samples           13311788                       # Request fanout histogram
system.l2bus.snoop_fanout::mean              0.102777                       # Request fanout histogram
system.l2bus.snoop_fanout::stdev             0.303668                       # Request fanout histogram
system.l2bus.snoop_fanout::underflows               0      0.00%      0.00% # Request fanout histogram
system.l2bus.snoop_fanout::0                 11943641     89.72%     89.72% # Request fanout histogram
system.l2bus.snoop_fanout::1                  1368147     10.28%    100.00% # Request fanout histogram
system.l2bus.snoop_fanout::2                        0      0.00%    100.00% # Request fanout histogram
system.l2bus.snoop_fanout::overflows                0      0.00%    100.00% # Request fanout histogram
system.l2bus.snoop_fanout::min_value                0                       # Request fanout histogram
system.l2bus.snoop_fanout::max_value                1                       # Request fanout histogram
system.l2bus.snoop_fanout::total             13311788                       # Request fanout histogram
system.l2bus.power_state.pwrStateResidencyTicks::UNDEFINED 1712681122000                       # Cumulative time (in ticks) in various power states
system.l2bus.reqLayer0.occupancy          13998642000                       # Layer occupancy (ticks)
system.l2bus.reqLayer0.utilization                0.8                       # Layer utilization (%)
system.l2bus.respLayer0.occupancy            56199000                       # Layer occupancy (ticks)
system.l2bus.respLayer0.utilization               0.0                       # Layer utilization (%)
system.l2bus.respLayer1.occupancy         19826241000                       # Layer occupancy (ticks)
system.l2bus.respLayer1.utilization               1.2                       # Layer utilization (%)
system.l2cache.demand_hits::.cpu.inst            8941                       # number of demand (read+write) hits
system.l2cache.demand_hits::.cpu.data           49341                       # number of demand (read+write) hits
system.l2cache.demand_hits::total               58282                       # number of demand (read+write) hits
system.l2cache.overall_hits::.cpu.inst           8941                       # number of overall hits
system.l2cache.overall_hits::.cpu.data          49341                       # number of overall hits
system.l2cache.overall_hits::total              58282                       # number of overall hits
system.l2cache.demand_misses::.cpu.inst          9792                       # number of demand (read+write) misses
system.l2cache.demand_misses::.cpu.data       6559406                       # number of demand (read+write) misses
system.l2cache.demand_misses::total           6569198                       # number of demand (read+write) misses
system.l2cache.overall_misses::.cpu.inst         9792                       # number of overall misses
system.l2cache.overall_misses::.cpu.data      6559406                       # number of overall misses
system.l2cache.overall_misses::total          6569198                       # number of overall misses
system.l2cache.demand_miss_latency::.cpu.inst    964023000                       # number of demand (read+write) miss cycles
system.l2cache.demand_miss_latency::.cpu.data 630611589000                       # number of demand (read+write) miss cycles
system.l2cache.demand_miss_latency::total 631575612000                       # number of demand (read+write) miss cycles
system.l2cache.overall_miss_latency::.cpu.inst    964023000                       # number of overall miss cycles
system.l2cache.overall_miss_latency::.cpu.data 630611589000                       # number of overall miss cycles
system.l2cache.overall_miss_latency::total 631575612000                       # number of overall miss cycles
system.l2cache.demand_accesses::.cpu.inst        18733                       # number of demand (read+write) accesses
system.l2cache.demand_accesses::.cpu.data      6608747                       # number of demand (read+write) accesses
system.l2cache.demand_accesses::total         6627480                       # number of demand (read+write) accesses
system.l2cache.overall_accesses::.cpu.inst        18733                       # number of overall (read+write) accesses
system.l2cache.overall_accesses::.cpu.data      6608747                       # number of overall (read+write) accesses
system.l2cache.overall_accesses::total        6627480                       # number of overall (read+write) accesses
system.l2cache.demand_miss_rate::.cpu.inst     0.522714                       # miss rate for demand accesses
system.l2cache.demand_miss_rate::.cpu.data     0.992534                       # miss rate for demand accesses
system.l2cache.demand_miss_rate::total       0.991206                       # miss rate for demand accesses
system.l2cache.overall_miss_rate::.cpu.inst     0.522714                       # miss rate for overall accesses
system.l2cache.overall_miss_rate::.cpu.data     0.992534                       # miss rate for overall accesses
system.l2cache.overall_miss_rate::total      0.991206                       # miss rate for overall accesses
system.l2cache.demand_avg_miss_latency::.cpu.inst 98450.061275                       # average overall miss latency
system.l2cache.demand_avg_miss_latency::.cpu.data 96138.520622                       # average overall miss latency
system.l2cache.demand_avg_miss_latency::total 96141.966188                       # average overall miss latency
system.l2cache.overall_avg_miss_latency::.cpu.inst 98450.061275                       # average overall miss latency
system.l2cache.overall_avg_miss_latency::.cpu.data 96138.520622                       # average overall miss latency
system.l2cache.overall_avg_miss_latency::total 96141.966188                       # average overall miss latency
system.l2cache.blocked_cycles::no_mshrs             0                       # number of cycles access was blocked
system.l2cache.blocked_cycles::no_targets            0                       # number of cycles access was blocked
system.l2cache.blocked::no_mshrs                    0                       # number of cycles access was blocked
system.l2cache.blocked::no_targets                  0                       # number of cycles access was blocked
system.l2cache.avg_blocked_cycles::no_mshrs          nan                       # average number of cycles each access was blocked
system.l2cache.avg_blocked_cycles::no_targets          nan                       # average number of cycles each access was blocked
system.l2cache.writebacks::.writebacks         338947                       # number of writebacks
system.l2cache.writebacks::total               338947                       # number of writebacks
system.l2cache.demand_mshr_misses::.cpu.inst         9792                       # number of demand (read+write) MSHR misses
system.l2cache.demand_mshr_misses::.cpu.data      6559406                       # number of demand (read+write) MSHR misses
system.l2cache.demand_mshr_misses::total      6569198                       # number of demand (read+write) MSHR misses
system.l2cache.overall_mshr_misses::.cpu.inst         9792                       # number of overall MSHR misses
system.l2cache.overall_mshr_misses::.cpu.data      6559406                       # number of overall MSHR misses
system.l2cache.overall_mshr_misses::total      6569198                       # number of overall MSHR misses
system.l2cache.demand_mshr_miss_latency::.cpu.inst    768183000                       # number of demand (read+write) MSHR miss cycles
system.l2cache.demand_mshr_miss_latency::.cpu.data 499423469000                       # number of demand (read+write) MSHR miss cycles
system.l2cache.demand_mshr_miss_latency::total 500191652000                       # number of demand (read+write) MSHR miss cycles
system.l2cache.overall_mshr_miss_latency::.cpu.inst    768183000                       # number of overall MSHR miss cycles
system.l2cache.overall_mshr_miss_latency::.cpu.data 499423469000                       # number of overall MSHR miss cycles
system.l2cache.overall_mshr_miss_latency::total 500191652000                       # number of overall MSHR miss cycles
system.l2cache.demand_mshr_miss_rate::.cpu.inst     0.522714                       # mshr miss rate for demand accesses
system.l2cache.demand_mshr_miss_rate::.cpu.data     0.992534                       # mshr miss rate for demand accesses
system.l2cache.demand_mshr_miss_rate::total     0.991206                       # mshr miss rate for demand accesses
system.l2cache.overall_mshr_miss_rate::.cpu.inst     0.522714                       # mshr miss rate for overall accesses
system.l2cache.overall_mshr_miss_rate::.cpu.data     0.992534                       # mshr miss rate for overall accesses
system.l2cache.overall_mshr_miss_rate::total     0.991206                       # mshr miss rate for overall accesses
system.l2cache.demand_avg_mshr_miss_latency::.cpu.inst 78450.061275                       # average overall mshr miss latency
system.l2cache.demand_avg_mshr_miss_latency::.cpu.data 76138.520622                       # average overall mshr miss latency
system.l2cache.demand_avg_mshr_miss_latency::total 76141.966188                       # average overall mshr miss latency
system.l2cache.overall_avg_mshr_miss_latency::.cpu.inst 78450.061275                       # average overall mshr miss latency
system.l2cache.overall_avg_mshr_miss_latency::.cpu.data 76138.520622                       # average overall mshr miss latency
system.l2cache.overall_avg_mshr_miss_latency::total 76141.966188                       # average overall mshr miss latency
system.l2cache.replacements                   6619318                       # number of replacements
system.l2cache.WritebackDirty_hits::.writebacks       371267                       # number of WritebackDirty hits
system.l2cache.WritebackDirty_hits::total       371267                       # number of WritebackDirty hits
system.l2cache.WritebackDirty_misses::.writebacks         1214                       # number of WritebackDirty misses
system.l2cache.WritebackDirty_misses::total         1214                       # number of WritebackDirty misses
system.l2cache.WritebackDirty_accesses::.writebacks       372481                       # number of WritebackDirty accesses(hits+misses)
system.l2cache.WritebackDirty_accesses::total       372481                       # number of WritebackDirty accesses(hits+misses)
system.l2cache.WritebackDirty_miss_rate::.writebacks     0.003259                       # miss rate for WritebackDirty accesses
system.l2cache.WritebackDirty_miss_rate::total     0.003259                       # miss rate for WritebackDirty accesses
system.l2cache.WritebackDirty_mshr_misses::.writebacks         1214                       # number of WritebackDirty MSHR misses
system.l2cache.WritebackDirty_mshr_misses::total         1214                       # number of WritebackDirty MSHR misses
system.l2cache.WritebackDirty_mshr_miss_rate::.writebacks     0.003259                       # mshr miss rate for WritebackDirty accesses
system.l2cache.WritebackDirty_mshr_miss_rate::total     0.003259                       # mshr miss rate for WritebackDirty accesses
system.l2cache.CleanEvict_mshr_misses::.writebacks      1249447                       # number of CleanEvict MSHR misses
system.l2cache.CleanEvict_mshr_misses::total      1249447                       # number of CleanEvict MSHR misses
system.l2cache.CleanEvict_mshr_miss_rate::.writebacks          inf                       # mshr miss rate for CleanEvict accesses
system.l2cache.CleanEvict_mshr_miss_rate::total          inf                       # mshr miss rate for CleanEvict accesses
system.l2cache.ReadExReq_hits::.cpu.data        11170                       # number of ReadExReq hits
system.l2cache.ReadExReq_hits::total            11170                       # number of ReadExReq hits
system.l2cache.ReadExReq_misses::.cpu.data       106801                       # number of ReadExReq misses
system.l2cache.ReadExReq_misses::total         106801                       # number of ReadExReq misses
system.l2cache.ReadExReq_miss_latency::.cpu.data  11257489000                       # number of ReadExReq miss cycles
system.l2cache.ReadExReq_miss_latency::total  11257489000                       # number of ReadExReq miss cycles
system.l2cache.ReadExReq_accesses::.cpu.data       117971                       # number of ReadExReq accesses(hits+misses)
system.l2cache.ReadExReq_accesses::total       117971                       # number of ReadExReq accesses(hits+misses)
system.l2cache.ReadExReq_miss_rate::.cpu.data     0.905316                       # miss rate for ReadExReq accesses
system.l2cache.ReadExReq_miss_rate::total     0.905316                       # miss rate for ReadExReq accesses
system.l2cache.ReadExReq_avg_miss_latency::.cpu.data 105406.213425                       # average ReadExReq miss latency
system.l2cache.ReadExReq_avg_miss_latency::total 105406.213425                       # average ReadExReq miss latency
system.l2cache.ReadExReq_mshr_misses::.cpu.data       106801                       # number of ReadExReq MSHR misses
system.l2cache.ReadExReq_mshr_misses::total       106801                       # number of ReadExReq MSHR misses
system.l2cache.ReadExReq_mshr_miss_latency::.cpu.data   9121469000                       # number of ReadExReq MSHR miss cycles
system.l2cache.ReadExReq_mshr_miss_latency::total   9121469000                       # number of ReadExReq MSHR miss cycles
system.l2cache.ReadExReq_mshr_miss_rate::.cpu.data     0.905316                       # mshr miss rate for ReadExReq accesses
system.l2cache.ReadExReq_mshr_miss_rate::total     0.905316                       # mshr miss rate for ReadExReq accesses
system.l2cache.ReadExReq_avg_mshr_miss_latency::.cpu.data 85406.213425                       # average ReadExReq mshr miss latency
system.l2cache.ReadExReq_avg_mshr_miss_latency::total 85406.213425                       # average ReadExReq mshr miss latency
system.l2cache.ReadSharedReq_hits::.cpu.inst         8941                       # number of ReadSharedReq hits
system.l2cache.ReadSharedReq_hits::.cpu.data        38171                       # number of ReadSharedReq hits
system.l2cache.ReadSharedReq_hits::total        47112                       # number of ReadSharedReq hits
system.l2cache.ReadSharedReq_misses::.cpu.inst         9792                       # number of ReadSharedReq misses
system.l2cache.ReadSharedReq_misses::.cpu.data      6452605                       # number of ReadSharedReq misses
system.l2cache.ReadSharedReq_misses::total      6462397                       # number of ReadSharedReq misses
system.l2cache.ReadSharedReq_miss_latency::.cpu.inst    964023000                       # number of ReadSharedReq miss cycles
system.l2cache.ReadSharedReq_miss_latency::.cpu.data 619354100000                       # number of ReadSharedReq miss cycles
system.l2cache.ReadSharedReq_miss_latency::total 620318123000                       # number of ReadSharedReq miss cycles
system.l2cache.ReadSharedReq_accesses::.cpu.inst        18733                       # number of ReadSharedReq accesses(hits+misses)
system.l2cache.ReadSharedReq_accesses::.cpu.data      6490776                       # number of ReadSharedReq accesses(hits+misses)
system.l2cache.ReadSharedReq_accesses::total      6509509                       # number of ReadSharedReq accesses(hits+misses)
system.l2cache.ReadSharedReq_miss_rate::.cpu.inst     0.522714                       # miss rate for ReadSharedReq accesses
system.l2cache.ReadSharedReq_miss_rate::.cpu.data     0.994119                       # miss rate for ReadSharedReq accesses
system.l2cache.ReadSharedReq_miss_rate::total     0.992763                       # miss rate for ReadSharedReq accesses
system.l2cache.ReadSharedReq_avg_miss_latency::.cpu.inst 98450.061275                       # average ReadSharedReq miss latency
system.l2cache.ReadSharedReq_avg_miss_latency::.cpu.data 95985.125387                       # average ReadSharedReq miss latency
system.l2cache.ReadSharedReq_avg_miss_latency::total 95988.860325                       # average ReadSharedReq miss latency
system.l2cache.ReadSharedReq_mshr_misses::.cpu.inst         9792                       # number of ReadSharedReq MSHR misses
system.l2cache.ReadSharedReq_mshr_misses::.cpu.data      6452605                       # number of ReadSharedReq MSHR misses
system.l2cache.ReadSharedReq_mshr_misses::total      6462397                       # number of ReadSharedReq MSHR misses
system.l2cache.ReadSharedReq_mshr_miss_latency::.cpu.inst    768183000                       # number of ReadSharedReq MSHR miss cycles
system.l2cache.ReadSharedReq_mshr_miss_latency::.cpu.data 490302000000                       # number of ReadSharedReq MSHR miss cycles
system.l2cache.ReadSharedReq_mshr_miss_latency::total 491070183000                       # number of ReadSharedReq MSHR miss cycles
system.l2cache.ReadSharedReq_mshr_miss_rate::.cpu.inst     0.522714                       # mshr miss rate for ReadSharedReq accesses
system.l2cache.ReadSharedReq_mshr_miss_rate::.cpu.data     0.994119                       # mshr miss rate for ReadSharedReq accesses
system.l2cache.ReadSharedReq_mshr_miss_rate::total     0.992763                       # mshr miss rate for ReadSharedReq accesses
system.l2cache.ReadSharedReq_avg_mshr_miss_latency::.cpu.inst 78450.061275                       # average ReadSharedReq mshr miss latency
system.l2cache.ReadSharedReq_avg_mshr_miss_latency::.cpu.data 75985.125387                       # average ReadSharedReq mshr miss latency
system.l2cache.ReadSharedReq_avg_mshr_miss_latency::total 75988.860325                       # average ReadSharedReq mshr miss latency
system.l2cache.power_state.pwrStateResidencyTicks::UNDEFINED 1712681122000                       # Cumulative time (in ticks) in various power states
system.l2cache.replacement_policy.totalBypasses        66204                       # Total number of cache bypasses
system.l2cache.replacement_policy.effectiveBypasses        11085                       # Bypasses that correctly skipped non-reused blocks
system.l2cache.replacement_policy.ineffectiveBypasses          200                       # Bypasses that incorrectly skipped requested blocks
system.l2cache.replacement_policy.virtualEffectiveBypasses        62627                       # Virtual bypasses correctly predicting non-reused blocks
system.l2cache.replacement_policy.virtualIneffectiveBypasses       168866                       # Virtual bypasses incorrectly predicting requested blocks
system.l2cache.tags.tagsinuse             2047.648247                       # Cycle average of tags in use
system.l2cache.tags.total_refs               11938029                       # Total number of references to valid blocks.
system.l2cache.tags.sampled_refs              6621366                       # Sample count of references to valid blocks.
system.l2cache.tags.avg_refs                 1.802956                       # Average number of references to valid blocks.
system.l2cache.tags.warmup_cycle                86000                       # Cycle when the warmup percentage was hit.
system.l2cache.tags.occ_blocks::.writebacks    51.547984                       # Average occupied blocks per requestor
system.l2cache.tags.occ_blocks::.cpu.inst     2.821151                       # Average occupied blocks per requestor
system.l2cache.tags.occ_blocks::.cpu.data  1993.279112                       # Average occupied blocks per requestor
system.l2cache.tags.occ_percent::.writebacks     0.025170                       # Average percentage of cache occupancy
system.l2cache.tags.occ_percent::.cpu.inst     0.001378                       # Average percentage of cache occupancy
system.l2cache.tags.occ_percent::.cpu.data     0.973281                       # Average percentage of cache occupancy
system.l2cache.tags.occ_percent::total       0.999828                       # Average percentage of cache occupancy
system.l2cache.tags.occ_task_id_blocks::1024         2048                       # Occupied blocks per task id
system.l2cache.tags.age_task_id_blocks_1024::0           73                       # Occupied blocks per task id
system.l2cache.tags.age_task_id_blocks_1024::1          193                       # Occupied blocks per task id
system.l2cache.tags.age_task_id_blocks_1024::2         1633                       # Occupied blocks per task id
system.l2cache.tags.age_task_id_blocks_1024::3          149                       # Occupied blocks per task id
system.l2cache.tags.occ_task_id_percent::1024            1                       # Percentage of cache occupancy per task id
system.l2cache.tags.tag_accesses            112650806                       # Number of tag accesses
system.l2cache.tags.data_accesses           112650806                       # Number of data accesses
system.l2cache.tags.power_state.pwrStateResidencyTicks::UNDEFINED 1712681122000                       # Cumulative time (in ticks) in various power states
system.mem_ctrl.avgPriority_.writebacks::samples    340160.00                       # Average QoS priority value for accepted requests
system.mem_ctrl.avgPriority_.cpu.inst::samples      9792.00                       # Average QoS priority value for accepted requests
system.mem_ctrl.avgPriority_.cpu.data::samples   6549551.00                       # Average QoS priority value for accepted requests
system.mem_ctrl.priorityMinLatency       0.000000018750                       # per QoS priority minimum request to response latency (s)
system.mem_ctrl.priorityMaxLatency       0.003161622500                       # per QoS priority maximum request to response latency (s)
system.mem_ctrl.numReadWriteTurnArounds         19145                       # Number of turnarounds from READ to WRITE
system.mem_ctrl.numWriteReadTurnArounds         19145                       # Number of turnarounds from WRITE to READ
system.mem_ctrl.numStayReadState             13894024                       # Number of times bus staying in READ state
system.mem_ctrl.numStayWriteState              321314                       # Number of times bus staying in WRITE state
system.mem_ctrl.readReqs                      6569198                       # Number of read requests accepted
system.mem_ctrl.writeReqs                      340161                       # Number of write requests accepted
system.mem_ctrl.readBursts                    6569198                       # Number of controller read bursts, including those serviced by the write queue
system.mem_ctrl.writeBursts                    340161                       # Number of controller write bursts, including those merged in the write queue
system.mem_ctrl.servicedByWrQ                    9855                       # Number of controller read bursts serviced by the write queue
system.mem_ctrl.mergedWrBursts                      1                       # Number of controller write bursts merged with an existing one
system.mem_ctrl.neitherReadNorWriteReqs             0                       # Number of requests that are neither read nor write
system.mem_ctrl.avgRdQLen                        1.00                       # Average read queue length when enqueuing
system.mem_ctrl.avgWrQLen                       24.58                       # Average write queue length when enqueuing
system.mem_ctrl.numRdRetry                          0                       # Number of times read queue was full causing retry
system.mem_ctrl.numWrRetry                          0                       # Number of times write queue was full causing retry
system.mem_ctrl.readPktSize::0                      0                       # Read request sizes (log2)
system.mem_ctrl.readPktSize::1                      0                       # Read request sizes (log2)
system.mem_ctrl.readPktSize::2                      0                       # Read request sizes (log2)
system.mem_ctrl.readPktSize::3                      0                       # Read request sizes (log2)
system.mem_ctrl.readPktSize::4                      0                       # Read request sizes (log2)
system.mem_ctrl.readPktSize::5                      0                       # Read request sizes (log2)
system.mem_ctrl.readPktSize::6                6569198                       # Read request sizes (log2)
system.mem_ctrl.writePktSize::0                     0                       # Write request sizes (log2)
system.mem_ctrl.writePktSize::1                     0                       # Write request sizes (log2)
system.mem_ctrl.writePktSize::2                     0                       # Write request sizes (log2)
system.mem_ctrl.writePktSize::3                     0                       # Write request sizes (log2)
system.mem_ctrl.writePktSize::4                     0                       # Write request sizes (log2)
system.mem_ctrl.writePktSize::5                     0                       # Write request sizes (log2)
system.mem_ctrl.writePktSize::6                340161                       # Write request sizes (log2)
system.mem_ctrl.rdQLenPdf::0                  6559261                       # What read queue length does an incoming req see
system.mem_ctrl.rdQLenPdf::1                       82                       # What read queue length does an incoming req see
system.mem_ctrl.rdQLenPdf::2                        0                       # What read queue length does an incoming req see
system.mem_ctrl.rdQLenPdf::3                        0                       # What read queue length does an incoming req see
system.mem_ctrl.rdQLenPdf::4                        0                       # What read queue length does an incoming req see
system.mem_ctrl.rdQLenPdf::5                        0                       # What read queue length does an incoming req see
system.mem_ctrl.rdQLenPdf::6                        0                       # What read queue length does an incoming req see
system.mem_ctrl.rdQLenPdf::7                        0                       # What read queue length does an incoming req see
system.mem_ctrl.rdQLenPdf::8                        0                       # What read queue length does an incoming req see
system.mem_ctrl.rdQLenPdf::9                        0                       # What read queue length does an incoming req see
system.mem_ctrl.rdQLenPdf::10                       0                       # What read queue length does an incoming req see
system.mem_ctrl.rdQLenPdf::11                       0                       # What read queue length does an incoming req see
system.mem_ctrl.rdQLenPdf::12                       0                       # What read queue length does an incoming req see
system.mem_ctrl.rdQLenPdf::13                       0                       # What read queue length does an incoming req see
system.mem_ctrl.rdQLenPdf::14                       0                       # What read queue length does an incoming req see
system.mem_ctrl.rdQLenPdf::15                       0                       # What read queue length does an incoming req see
system.mem_ctrl.rdQLenPdf::16                       0                       # What read queue length does an incoming req see
system.mem_ctrl.rdQLenPdf::17                       0                       # What read queue length does an incoming req see
system.mem_ctrl.rdQLenPdf::18                       0                       # What read queue length does an incoming req see
system.mem_ctrl.rdQLenPdf::19                       0                       # What read queue length does an incoming req see
system.mem_ctrl.rdQLenPdf::20                       0                       # What read queue length does an incoming req see
system.mem_ctrl.rdQLenPdf::21                       0                       # What read queue length does an incoming req see
system.mem_ctrl.rdQLenPdf::22                       0                       # What read queue length does an incoming req see
system.mem_ctrl.rdQLenPdf::23                       0                       # What read queue length does an incoming req see
system.mem_ctrl.rdQLenPdf::24                       0                       # What read queue length does an incoming req see
system.mem_ctrl.rdQLenPdf::25                       0                       # What read queue length does an incoming req see
system.mem_ctrl.rdQLenPdf::26                       0                       # What read queue length does an incoming req see
system.mem_ctrl.rdQLenPdf::27                       0                       # What read queue length does an incoming req see
system.mem_ctrl.rdQLenPdf::28                       0                       # What read queue length does an incoming req see
system.mem_ctrl.rdQLenPdf::29                       0                       # What read queue length does an incoming req see
system.mem_ctrl.rdQLenPdf::30                       0                       # What read queue length does an incoming req see
system.mem_ctrl.rdQLenPdf::31                       0                       # What read queue length does an incoming req see
system.mem_ctrl.wrQLenPdf::0                        1                       # What write queue length does an incoming req see
system.mem_ctrl.wrQLenPdf::1                        1                       # What write queue length does an incoming req see
system.mem_ctrl.wrQLenPdf::2                        1                       # What write queue length does an incoming req see
system.mem_ctrl.wrQLenPdf::3                        1                       # What write queue length does an incoming req see
system.mem_ctrl.wrQLenPdf::4                        1                       # What write queue length does an incoming req see
system.mem_ctrl.wrQLenPdf::5                        1                       # What write queue length does an incoming req see
system.mem_ctrl.wrQLenPdf::6                        1                       # What write queue length does an incoming req see
system.mem_ctrl.wrQLenPdf::7                        1                       # What write queue length does an incoming req see
system.mem_ctrl.wrQLenPdf::8                        1                       # What write queue length does an incoming req see
system.mem_ctrl.wrQLenPdf::9                        1                       # What write queue length does an incoming req see
system.mem_ctrl.wrQLenPdf::10                       1                       # What write queue length does an incoming req see
system.mem_ctrl.wrQLenPdf::11                       1                       # What write queue length does an incoming req see
system.mem_ctrl.wrQLenPdf::12                       1                       # What write queue length does an incoming req see
system.mem_ctrl.wrQLenPdf::13                       1                       # What write queue length does an incoming req see
system.mem_ctrl.wrQLenPdf::14                       1                       # What write queue length does an incoming req see
system.mem_ctrl.wrQLenPdf::15                   16421                       # What write queue length does an incoming req see
system.mem_ctrl.wrQLenPdf::16                   16602                       # What write queue length does an incoming req see
system.mem_ctrl.wrQLenPdf::17                   18941                       # What write queue length does an incoming req see
system.mem_ctrl.wrQLenPdf::18                   19301                       # What write queue length does an incoming req see
system.mem_ctrl.wrQLenPdf::19                   19271                       # What write queue length does an incoming req see
system.mem_ctrl.wrQLenPdf::20                   19233                       # What write queue length does an incoming req see
system.mem_ctrl.wrQLenPdf::21                   19558                       # What write queue length does an incoming req see
system.mem_ctrl.wrQLenPdf::22                   19327                       # What write queue length does an incoming req see
system.mem_ctrl.wrQLenPdf::23                   19157                       # What write queue length does an incoming req see
system.mem_ctrl.wrQLenPdf::24                   19148                       # What write queue length does an incoming req see
system.mem_ctrl.wrQLenPdf::25                   19150                       # What write queue length does an incoming req see
system.mem_ctrl.wrQLenPdf::26                   19153                       # What write queue length does an incoming req see
system.mem_ctrl.wrQLenPdf::27                   19146                       # What write queue length does an incoming req see
system.mem_ctrl.wrQLenPdf::28                   19145                       # What write queue length does an incoming req see
system.mem_ctrl.wrQLenPdf::29                   19147                       # What write queue length does an incoming req see
system.mem_ctrl.wrQLenPdf::30                   19145                       # What write queue length does an incoming req see
system.mem_ctrl.wrQLenPdf::31                   19145                       # What write queue length does an incoming req see
system.mem_ctrl.wrQLenPdf::32                   19145                       # What write queue length does an incoming req see
system.mem_ctrl.wrQLenPdf::33                      10                       # What write queue length does an incoming req see
system.mem_ctrl.wrQLenPdf::34                       0                       # What write queue length does an incoming req see
system.mem_ctrl.wrQLenPdf::35                       0                       # What write queue length does an incoming req see
system.mem_ctrl.wrQLenPdf::36                       0                       # What write queue length does an incoming req see
system.mem_ctrl.wrQLenPdf::37                       0                       # What write queue length does an incoming req see
system.mem_ctrl.wrQLenPdf::38                       0                       # What write queue length does an incoming req see
system.mem_ctrl.wrQLenPdf::39                       0                       # What write queue length does an incoming req see
system.mem_ctrl.wrQLenPdf::40                       0                       # What write queue length does an incoming req see
system.mem_ctrl.wrQLenPdf::41                       0                       # What write queue length does an incoming req see
system.mem_ctrl.wrQLenPdf::42                       0                       # What write queue length does an incoming req see
system.mem_ctrl.wrQLenPdf::43                       0                       # What write queue length does an incoming req see
system.mem_ctrl.wrQLenPdf::44                       0                       # What write queue length does an incoming req see
system.mem_ctrl.wrQLenPdf::45                       0                       # What write queue length does an incoming req see
system.mem_ctrl.wrQLenPdf::46                       0                       # What write queue length does an incoming req see
system.mem_ctrl.wrQLenPdf::47                       0                       # What write queue length does an incoming req see
system.mem_ctrl.wrQLenPdf::48                       0                       # What write queue length does an incoming req see
system.mem_ctrl.wrQLenPdf::49                       0                       # What write queue length does an incoming req see
system.mem_ctrl.wrQLenPdf::50                       0                       # What write queue length does an incoming req see
system.mem_ctrl.wrQLenPdf::51                       0                       # What write queue length does an incoming req see
system.mem_ctrl.wrQLenPdf::52                       0                       # What write queue length does an incoming req see
system.mem_ctrl.wrQLenPdf::53                       0                       # What write queue length does an incoming req see
system.mem_ctrl.wrQLenPdf::54                       0                       # What write queue length does an incoming req see
system.mem_ctrl.wrQLenPdf::55                       0                       # What write queue length does an incoming req see
system.mem_ctrl.wrQLenPdf::56                       0                       # What write queue length does an incoming req see
system.mem_ctrl.wrQLenPdf::57                       0                       # What write queue length does an incoming req see
system.mem_ctrl.wrQLenPdf::58                       0                       # What write queue length does an incoming req see
system.mem_ctrl.wrQLenPdf::59                       0                       # What write queue length does an incoming req see
system.mem_ctrl.wrQLenPdf::60                       0                       # What write queue length does an incoming req see
system.mem_ctrl.wrQLenPdf::61                       0                       # What write queue length does an incoming req see
system.mem_ctrl.wrQLenPdf::62                       0                       # What write queue length does an incoming req see
system.mem_ctrl.wrQLenPdf::63                       0                       # What write queue length does an incoming req see
system.mem_ctrl.rdPerTurnAround::samples        19145                       # Reads before turning the bus around for writes
system.mem_ctrl.rdPerTurnAround::mean      342.611543                       # Reads before turning the bus around for writes
system.mem_ctrl.rdPerTurnAround::stdev     656.327360                       # Reads before turning the bus around for writes
system.mem_ctrl.rdPerTurnAround::0-127          14365     75.03%     75.03% # Reads before turning the bus around for writes
system.mem_ctrl.rdPerTurnAround::128-255          513      2.68%     77.71% # Reads before turning the bus around for writes
system.mem_ctrl.rdPerTurnAround::256-383          393      2.05%     79.76% # Reads before turning the bus around for writes
system.mem_ctrl.rdPerTurnAround::384-511          177      0.92%     80.69% # Reads before turning the bus around for writes
system.mem_ctrl.rdPerTurnAround::512-639           14      0.07%     80.76% # Reads before turning the bus around for writes
system.mem_ctrl.rdPerTurnAround::640-767           41      0.21%     80.98% # Reads before turning the bus around for writes
system.mem_ctrl.rdPerTurnAround::768-895          204      1.07%     82.04% # Reads before turning the bus around for writes
system.mem_ctrl.rdPerTurnAround::896-1023          110      0.57%     82.62% # Reads before turning the bus around for writes
system.mem_ctrl.rdPerTurnAround::1024-1151          158      0.83%     83.44% # Reads before turning the bus around for writes
system.mem_ctrl.rdPerTurnAround::1152-1279          418      2.18%     85.63% # Reads before turning the bus around for writes
system.mem_ctrl.rdPerTurnAround::1280-1407           61      0.32%     85.94% # Reads before turning the bus around for writes
system.mem_ctrl.rdPerTurnAround::1408-1535           74      0.39%     86.33% # Reads before turning the bus around for writes
system.mem_ctrl.rdPerTurnAround::1536-1663         2181     11.39%     97.72% # Reads before turning the bus around for writes
system.mem_ctrl.rdPerTurnAround::1664-1791            1      0.01%     97.73% # Reads before turning the bus around for writes
system.mem_ctrl.rdPerTurnAround::1792-1919           12      0.06%     97.79% # Reads before turning the bus around for writes
system.mem_ctrl.rdPerTurnAround::1920-2047           13      0.07%     97.86% # Reads before turning the bus around for writes
system.mem_ctrl.rdPerTurnAround::2048-2175           75      0.39%     98.25% # Reads before turning the bus around for writes
system.mem_ctrl.rdPerTurnAround::2304-2431            4      0.02%     98.27% # Reads before turning the bus around for writes
system.mem_ctrl.rdPerTurnAround::2432-2559          124      0.65%     98.92% # Reads before turning the bus around for writes
system.mem_ctrl.rdPerTurnAround::2560-2687            2      0.01%     98.93% # Reads before turning the bus around for writes
system.mem_ctrl.rdPerTurnAround::2816-2943            4      0.02%     98.95% # Reads before turning the bus around for writes
system.mem_ctrl.rdPerTurnAround::2944-3071            1      0.01%     98.96% # Reads before turning the bus around for writes
system.mem_ctrl.rdPerTurnAround::3200-3327          178      0.93%     99.89% # Reads before turning the bus around for writes
system.mem_ctrl.rdPerTurnAround::3328-3455            3      0.02%     99.90% # Reads before turning the bus around for writes
[...]
system.mem_ctrl.requestorReadRate::.cpu.data 244745655.578026503325                       # Per-requestor bytes read from memory rate (Bytes/sec)
system.mem_ctrl.requestorWriteRate::.writebacks 12710307.669287195429                       # Per-requestor bytes write to memory rate (Bytes/sec)
system.mem_ctrl.requestorReadAccesses::.cpu.inst         9792                       # Per-requestor read serviced memory accesses
system.mem_ctrl.requestorReadAccesses::.cpu.data      6559406                       # Per-requestor read serviced memory accesses
system.mem_ctrl.requestorWriteAccesses::.writebacks       340161                       # Per-requestor write serviced memory accesses
system.mem_ctrl.requestorReadTotalLat::.cpu.inst    265508750                       # Per-requestor read total memory access latency
system.mem_ctrl.requestorReadTotalLat::.cpu.data 163076252250                       # Per-requestor read total memory access latency
system.mem_ctrl.requestorWriteTotalLat::.writebacks 40364104539750                       # Per-requestor write total memory access latency
system.mem_ctrl.requestorReadAvgLat::.cpu.inst     27114.86                       # Per-requestor read average memory access latency
system.mem_ctrl.requestorReadAvgLat::.cpu.data     24861.44                       # Per-requestor read average memory access latency
system.mem_ctrl.requestorWriteAvgLat::.writebacks 118661764.69                       # Per-requestor write average memory access latency
system.mem_ctrl.dram.bytes_read::.cpu.inst       626688                       # Number of bytes read from this memory
system.mem_ctrl.dram.bytes_read::.cpu.data    419801984                       # Number of bytes read from this memory
system.mem_ctrl.dram.bytes_read::total      420428672                       # Number of bytes read from this memory
system.mem_ctrl.dram.bytes_inst_read::.cpu.inst       626688                       # Number of instructions bytes read from this memory
system.mem_ctrl.dram.bytes_inst_read::total       626688                       # Number of instructions bytes read from this memory
system.mem_ctrl.dram.bytes_written::.writebacks     21770304                       # Number of bytes written to this memory
system.mem_ctrl.dram.bytes_written::total     21770304                       # Number of bytes written to this memory
system.mem_ctrl.dram.num_reads::.cpu.inst         9792                       # Number of read requests responded to by this memory
system.mem_ctrl.dram.num_reads::.cpu.data      6559406                       # Number of read requests responded to by this memory
system.mem_ctrl.dram.num_reads::total         6569198                       # Number of read requests responded to by this memory
system.mem_ctrl.dram.num_writes::.writebacks       340161                       # Number of write requests responded to by this memory
system.mem_ctrl.dram.num_writes::total         340161                       # Number of write requests responded to by this memory
system.mem_ctrl.dram.bw_read::.cpu.inst        365910                       # Total read bandwidth from this memory (bytes/s)
system.mem_ctrl.dram.bw_read::.cpu.data     245113920                       # Total read bandwidth from this memory (bytes/s)
system.mem_ctrl.dram.bw_read::total         245479831                       # Total read bandwidth from this memory (bytes/s)
system.mem_ctrl.dram.bw_inst_read::.cpu.inst       365910                       # Instruction read bandwidth from this memory (bytes/s)
system.mem_ctrl.dram.bw_inst_read::total       365910                       # Instruction read bandwidth from this memory (bytes/s)
system.mem_ctrl.dram.bw_write::.writebacks     12711242                       # Write bandwidth from this memory (bytes/s)
system.mem_ctrl.dram.bw_write::total         12711242                       # Write bandwidth from this memory (bytes/s)
system.mem_ctrl.dram.bw_total::.writebacks     12711242                       # Total bandwidth to/from this memory (bytes/s)
system.mem_ctrl.dram.bw_total::.cpu.inst       365910                       # Total bandwidth to/from this memory (bytes/s)
system.mem_ctrl.dram.bw_total::.cpu.data    245113920                       # Total bandwidth to/from this memory (bytes/s)
system.mem_ctrl.dram.bw_total::total        258191073                       # Total bandwidth to/from this memory (bytes/s)
system.mem_ctrl.dram.readBursts               6559343                       # Number of DRAM read bursts
system.mem_ctrl.dram.writeBursts               340136                       # Number of DRAM write bursts
system.mem_ctrl.dram.perBankRdBursts::0        436960                       # Per bank write bursts
system.mem_ctrl.dram.perBankRdBursts::1        392779                       # Per bank write bursts
system.mem_ctrl.dram.perBankRdBursts::2        382760                       # Per bank write bursts
system.mem_ctrl.dram.perBankRdBursts::3        382824                       # Per bank write bursts
system.mem_ctrl.dram.perBankRdBursts::4        383852                       # Per bank write bursts
system.mem_ctrl.dram.perBankRdBursts::5        407547                       # Per bank write bursts
system.mem_ctrl.dram.perBankRdBursts::6        442731                       # Per bank write bursts
system.mem_ctrl.dram.perBankRdBursts::7        411190                       # Per bank write bursts
system.mem_ctrl.dram.perBankRdBursts::8        447304                       # Per bank write bursts
system.mem_ctrl.dram.perBankRdBursts::9        394864                       # Per bank write bursts
system.mem_ctrl.dram.perBankRdBursts::10       383993                       # Per bank write bursts
system.mem_ctrl.dram.perBankRdBursts::11       382521                       # Per bank write bursts
system.mem_ctrl.dram.perBankRdBursts::12       399637                       # Per bank write bursts
system.mem_ctrl.dram.perBankRdBursts::13       436041                       # Per bank write bursts
system.mem_ctrl.dram.perBankRdBursts::14       436590                       # Per bank write bursts
system.mem_ctrl.dram.perBankRdBursts::15       437750                       # Per bank write bursts
system.mem_ctrl.dram.perBankWrBursts::0          8327                       # Per bank write bursts
system.mem_ctrl.dram.perBankWrBursts::1          7647                       # Per bank write bursts
system.mem_ctrl.dram.perBankWrBursts::2          7600                       # Per bank write bursts
system.mem_ctrl.dram.perBankWrBursts::3          7669                       # Per bank write bursts
system.mem_ctrl.dram.perBankWrBursts::4          8689                       # Per bank write bursts
system.mem_ctrl.dram.perBankWrBursts::5         31838                       # Per bank write bursts
system.mem_ctrl.dram.perBankWrBursts::6         53507                       # Per bank write bursts
system.mem_ctrl.dram.perBankWrBursts::7          9721                       # Per bank write bursts
system.mem_ctrl.dram.perBankWrBursts::8         44959                       # Per bank write bursts
system.mem_ctrl.dram.perBankWrBursts::9         59810                       # Per bank write bursts
system.mem_ctrl.dram.perBankWrBursts::10        61210                       # Per bank write bursts
system.mem_ctrl.dram.perBankWrBursts::11         7960                       # Per bank write bursts
system.mem_ctrl.dram.perBankWrBursts::12         7187                       # Per bank write bursts
system.mem_ctrl.dram.perBankWrBursts::13         7714                       # Per bank write bursts
system.mem_ctrl.dram.perBankWrBursts::14         7564                       # Per bank write bursts
system.mem_ctrl.dram.perBankWrBursts::15         8734                       # Per bank write bursts
system.mem_ctrl.dram.totQLat              40354079750                       # Total ticks spent queuing
system.mem_ctrl.dram.totBusLat            32796715000                       # Total ticks spent in databus transfers
system.mem_ctrl.dram.totMemAccLat        163341761000                       # Total ticks spent from burst creation until serviced by the DRAM
system.mem_ctrl.dram.avgQLat                  6152.15                       # Average queueing delay per DRAM burst
system.mem_ctrl.dram.avgBusLat                5000.00                       # Average bus latency per DRAM burst
system.mem_ctrl.dram.avgMemAccLat            24902.15                       # Average memory access latency per DRAM burst
system.mem_ctrl.dram.readRowHits              5593638                       # Number of row buffer hits during reads
system.mem_ctrl.dram.writeRowHits              257978                       # Number of row buffer hits during writes
system.mem_ctrl.dram.readRowHitRate             85.28                       # Row buffer hit rate for reads
system.mem_ctrl.dram.writeRowHitRate            75.85                       # Row buffer hit rate for writes
system.mem_ctrl.dram.bytesPerActivate::samples      1047860                       # Bytes accessed per row activation
system.mem_ctrl.dram.bytesPerActivate::mean   421.397912                       # Bytes accessed per row activation
system.mem_ctrl.dram.bytesPerActivate::gmean   257.455476                       # Bytes accessed per row activation
system.mem_ctrl.dram.bytesPerActivate::stdev   359.405533                       # Bytes accessed per row activation
system.mem_ctrl.dram.bytesPerActivate::0-127       293119     27.97%     27.97% # Bytes accessed per row activation
system.mem_ctrl.dram.bytesPerActivate::128-255       165979     15.84%     43.81% # Bytes accessed per row activation
system.mem_ctrl.dram.bytesPerActivate::256-383       103056      9.83%     53.65% # Bytes accessed per row activation
system.mem_ctrl.dram.bytesPerActivate::384-511        94399      9.01%     62.66% # Bytes accessed per row activation
system.mem_ctrl.dram.bytesPerActivate::512-639        17126      1.63%     64.29% # Bytes accessed per row activation
system.mem_ctrl.dram.bytesPerActivate::640-767       173142     16.52%     80.81% # Bytes accessed per row activation
system.mem_ctrl.dram.bytesPerActivate::768-895         7940      0.76%     81.57% # Bytes accessed per row activation
system.mem_ctrl.dram.bytesPerActivate::896-1023         9724      0.93%     82.50% # Bytes accessed per row activation
system.mem_ctrl.dram.bytesPerActivate::1024-1151       183375     17.50%    100.00% # Bytes accessed per row activation
system.mem_ctrl.dram.bytesPerActivate::total      1047860                       # Bytes accessed per row activation
system.mem_ctrl.dram.bytesRead              419797952                       # Total number of bytes read from DRAM
system.mem_ctrl.dram.bytesWritten            21768704                       # Total number of bytes written to DRAM
system.mem_ctrl.dram.avgRdBW               245.111566                       # Average DRAM read bandwidth in MiBytes/s
system.mem_ctrl.dram.avgWrBW                12.710308                       # Average DRAM write bandwidth in MiBytes/s
system.mem_ctrl.dram.peakBW                  12800.00                       # Theoretical peak bandwidth in MiByte/s
system.mem_ctrl.dram.busUtil                     2.01                       # Data bus utilization in percentage
system.mem_ctrl.dram.busUtilRead                 1.91                       # Data bus utilization in percentage for reads
system.mem_ctrl.dram.busUtilWrite                0.10                       # Data bus utilization in percentage for writes
system.mem_ctrl.dram.pageHitRate                84.81                       # Row buffer hit rate, read and write combined
system.mem_ctrl.dram.power_state.pwrStateResidencyTicks::UNDEFINED 1712681122000                       # Cumulative time (in ticks) in various power states
system.mem_ctrl.dram.rank0.actEnergy       2934754200                       # Energy for activate commands per rank (pJ)
system.mem_ctrl.dram.rank0.preEnergy       1559851260                       # Energy for precharge commands per rank (pJ)
system.mem_ctrl.dram.rank0.readEnergy     23138191020                       # Energy for read commands per rank (pJ)
system.mem_ctrl.dram.rank0.writeEnergy      704689560                       # Energy for write commands per rank (pJ)
system.mem_ctrl.dram.rank0.refreshEnergy 135197443680.000015                       # Energy for refresh commands per rank (pJ)
system.mem_ctrl.dram.rank0.actBackEnergy 562047029400                       # Energy for active background per rank (pJ)
system.mem_ctrl.dram.rank0.preBackEnergy 184366789440                       # Energy for precharge background per rank (pJ)
system.mem_ctrl.dram.rank0.actPowerDownEnergy            0                       # Energy for active power-down per rank (pJ)
system.mem_ctrl.dram.rank0.prePowerDownEnergy            0                       # Energy for precharge power-down per rank (pJ)
system.mem_ctrl.dram.rank0.selfRefreshEnergy            0                       # Energy for self refresh per rank (pJ)
system.mem_ctrl.dram.rank0.totalEnergy   909948748560                       # Total energy per rank (pJ)
system.mem_ctrl.dram.rank0.averagePower    531.300741                       # Core power per rank (mW)
system.mem_ctrl.dram.rank0.totalIdleTime            0                       # Total Idle time Per DRAM Rank
system.mem_ctrl.dram.rank0.pwrStateTime::IDLE 474030633750                       # Time in different power states
system.mem_ctrl.dram.rank0.pwrStateTime::REF  57190120000                       # Time in different power states
system.mem_ctrl.dram.rank0.pwrStateTime::SREF            0                       # Time in different power states
system.mem_ctrl.dram.rank0.pwrStateTime::PRE_PDN            0                       # Time in different power states
system.mem_ctrl.dram.rank0.pwrStateTime::ACT 1181460368250                       # Time in different power states
system.mem_ctrl.dram.rank0.pwrStateTime::ACT_PDN            0                       # Time in different power states
system.mem_ctrl.dram.rank1.actEnergy       4546987620                       # Energy for activate commands per rank (pJ)
system.mem_ctrl.dram.rank1.preEnergy       2416777440                       # Energy for precharge commands per rank (pJ)
system.mem_ctrl.dram.rank1.readEnergy     23695518000                       # Energy for read commands per rank (pJ)
system.mem_ctrl.dram.rank1.writeEnergy     1070820360                       # Energy for write commands per rank (pJ)
system.mem_ctrl.dram.rank1.refreshEnergy 135197443680.000015                       # Energy for refresh commands per rank (pJ)
system.mem_ctrl.dram.rank1.actBackEnergy 603766228860                       # Energy for active background per rank (pJ)
system.mem_ctrl.dram.rank1.preBackEnergy 149234832000                       # Energy for precharge background per rank (pJ)
system.mem_ctrl.dram.rank1.actPowerDownEnergy            0                       # Energy for active power-down per rank (pJ)
system.mem_ctrl.dram.rank1.prePowerDownEnergy            0                       # Energy for precharge power-down per rank (pJ)
system.mem_ctrl.dram.rank1.selfRefreshEnergy            0                       # Energy for self refresh per rank (pJ)
system.mem_ctrl.dram.rank1.totalEnergy   919928607960                       # Total energy per rank (pJ)
system.mem_ctrl.dram.rank1.averagePower    537.127779                       # Core power per rank (mW)
system.mem_ctrl.dram.rank1.totalIdleTime            0                       # Total Idle time Per DRAM Rank
system.mem_ctrl.dram.rank1.pwrStateTime::IDLE 380124115000                       # Time in different power states
system.mem_ctrl.dram.rank1.pwrStateTime::REF  57190120000                       # Time in different power states
system.mem_ctrl.dram.rank1.pwrStateTime::SREF            0                       # Time in different power states
system.mem_ctrl.dram.rank1.pwrStateTime::PRE_PDN            0                       # Time in different power states
system.mem_ctrl.dram.rank1.pwrStateTime::ACT 1275366887000                       # Time in different power states
system.mem_ctrl.dram.rank1.pwrStateTime::ACT_PDN            0                       # Time in different power states
system.mem_ctrl.power_state.pwrStateResidencyTicks::UNDEFINED 1712681122000                       # Cumulative time (in ticks) in various power states
system.membus.trans_dist::ReadResp            6462397                       # Transaction distribution
system.membus.trans_dist::WritebackDirty       340161                       # Transaction distribution
system.membus.trans_dist::CleanEvict          6226661                       # Transaction distribution
system.membus.trans_dist::ReadExReq            106801                       # Transaction distribution
system.membus.trans_dist::ReadExResp           106801                       # Transaction distribution
system.membus.trans_dist::ReadSharedReq       6462397                       # Transaction distribution
system.membus.pkt_count_system.l2cache.mem_side_port::system.mem_ctrl.port     19705218                       # Packet count per connected requestor and responder (bytes)
system.membus.pkt_count_system.l2cache.mem_side_port::total     19705218                       # Packet count per connected requestor and responder (bytes)
system.membus.pkt_count::total               19705218                       # Packet count per connected requestor and responder (bytes)
system.membus.pkt_size_system.l2cache.mem_side_port::system.mem_ctrl.port    442198976                       # Cumulative packet size per connected requestor and responder (bytes)
system.membus.pkt_size_system.l2cache.mem_side_port::total    442198976                       # Cumulative packet size per connected requestor and responder (bytes)
system.membus.pkt_size::total               442198976                       # Cumulative packet size per connected requestor and responder (bytes)
system.membus.snoops                                0                       # Total snoops (count)
system.membus.snoopTraffic                          0                       # Total snoop traffic (bytes)
system.membus.snoop_fanout::samples           6569198                       # Request fanout histogram
system.membus.snoop_fanout::mean                    0                       # Request fanout histogram
system.membus.snoop_fanout::stdev                   0                       # Request fanout histogram
system.membus.snoop_fanout::underflows              0      0.00%      0.00% # Request fanout histogram
system.membus.snoop_fanout::0                 6569198    100.00%    100.00% # Request fanout histogram
system.membus.snoop_fanout::1                       0      0.00%    100.00% # Request fanout histogram
system.membus.snoop_fanout::overflows               0      0.00%    100.00% # Request fanout histogram
system.membus.snoop_fanout::min_value               0                       # Request fanout histogram
system.membus.snoop_fanout::max_value               0                       # Request fanout histogram
system.membus.snoop_fanout::total             6569198                       # Request fanout histogram
system.membus.power_state.pwrStateResidencyTicks::UNDEFINED 1712681122000                       # Cumulative time (in ticks) in various power states
system.membus.reqLayer2.occupancy         14496664000                       # Layer occupancy (ticks)
system.membus.reqLayer2.utilization               0.8                       # Layer utilization (%)
system.membus.respLayer0.occupancy        34764156500                       # Layer occupancy (ticks)
system.membus.respLayer0.utilization              2.0                       # Layer utilization (%)

---------- End Simulation Statistics   ----------
