
---------- Begin Simulation Statistics ----------
final_tick                               103261212000                       # Number of ticks from beginning of simulation (restored from checkpoints and never reset)
host_inst_rate                                 397080                       # Simulator instruction rate (inst/s)
host_mem_usage                                 671052                       # Number of bytes of host memory used
host_op_rate                                   746861                       # Simulator op (including micro ops) rate (op/s)
host_seconds                                    54.68                       # Real time elapsed on the host
host_tick_rate                             1888481140                       # Simulator tick rate (ticks/s)
sim_freq                                 1000000000000                       # Frequency of simulated ticks
sim_insts                                    21712019                       # Number of instructions simulated
sim_ops                                      40837966                       # Number of ops (including micro ops) simulated
sim_seconds                                  0.103261                       # Number of seconds simulated
sim_ticks                                103261212000                       # Number of ticks simulated
system.cpu.Branches                           1689461                       # Number of branches fetched
system.cpu.committedInsts                    21712019                       # Number of instructions committed
system.cpu.committedOps                      40837966                       # Number of ops (including micro ops) committed
system.cpu.idle_fraction                     0.000000                       # Percentage of idle cycles
system.cpu.not_idle_fraction                 1.000000                       # Percentage of non-idle cycles
system.cpu.numCycles                        103261212                       # number of cpu cycles simulated
system.cpu.numWorkItemsCompleted                    0                       # number of work items this cpu completed
system.cpu.numWorkItemsStarted                      0                       # number of work items this cpu started
system.cpu.num_busy_cycles               103261211.999000                       # Number of busy cycles
system.cpu.num_cc_register_reads              9199895                       # number of times the CC registers were read
system.cpu.num_cc_register_writes             7310793                       # number of times the CC registers were written
system.cpu.num_conditional_control_insts      1625136                       # number of instructions that are conditional controls
system.cpu.num_fp_alu_accesses               28213425                       # Number of float alu accesses
system.cpu.num_fp_insts                      28213425                       # number of float instructions
system.cpu.num_fp_register_reads             42716798                       # number of times the floating registers were read
system.cpu.num_fp_register_writes            25063166                       # number of times the floating registers were written
system.cpu.num_func_calls                       38520                       # number of times a function call or return occured
system.cpu.num_idle_cycles                   0.001000                       # Number of idle cycles
system.cpu.num_int_alu_accesses              26037819                       # Number of integer alu accesses
system.cpu.num_int_insts                     26037819                       # number of integer instructions
system.cpu.num_int_register_reads            61735269                       # number of times the integer registers were read
system.cpu.num_int_register_writes           10538201                       # number of times the integer registers were written
system.cpu.num_load_insts                    11754441                       # Number of load instructions
system.cpu.num_mem_refs                      15047396                       # number of memory refs
system.cpu.num_store_insts                    3292955                       # Number of store instructions
system.cpu.num_vec_alu_accesses                     0                       # Number of vector alu accesses
system.cpu.num_vec_insts                            0                       # number of vector instructions
system.cpu.num_vec_register_reads                   0                       # number of times the vector registers were read
system.cpu.num_vec_register_writes                  0                       # number of times the vector registers were written
system.cpu.op_class::No_OpClass                 82072      0.20%      0.20% # Class of executed instruction
system.cpu.op_class::IntAlu                  13296505     32.56%     32.76% # Class of executed instruction
system.cpu.op_class::IntMult                    80138      0.20%     32.96% # Class of executed instruction
system.cpu.op_class::IntDiv                       273      0.00%     32.96% # Class of executed instruction
system.cpu.op_class::FloatAdd                  374599      0.92%     33.87% # Class of executed instruction
system.cpu.op_class::FloatCmp                       0      0.00%     33.87% # Class of executed instruction
system.cpu.op_class::FloatCvt                       0      0.00%     33.87% # Class of executed instruction
system.cpu.op_class::FloatMult                      0      0.00%     33.87% # Class of executed instruction
system.cpu.op_class::FloatMultAcc                   0      0.00%     33.87% # Class of executed instruction
system.cpu.op_class::FloatDiv                       0      0.00%     33.87% # Class of executed instruction
system.cpu.op_class::FloatMisc                      0      0.00%     33.87% # Class of executed instruction
system.cpu.op_class::FloatSqrt                      0      0.00%     33.87% # Class of executed instruction
system.cpu.op_class::SimdAdd                       24      0.00%     33.87% # Class of executed instruction
system.cpu.op_class::SimdAddAcc                     0      0.00%     33.87% # Class of executed instruction
system.cpu.op_class::SimdAlu                   398960      0.98%     34.85% # Class of executed instruction
system.cpu.op_class::SimdCmp                       24      0.00%     34.85% # Class of executed instruction
system.cpu.op_class::SimdCvt                      730      0.00%     34.85% # Class of executed instruction
system.cpu.op_class::SimdMisc                  147076      0.36%     35.21% # Class of executed instruction
system.cpu.op_class::SimdMult                       0      0.00%     35.21% # Class of executed instruction
system.cpu.op_class::SimdMultAcc                    0      0.00%     35.21% # Class of executed instruction
system.cpu.op_class::SimdShift                      0      0.00%     35.21% # Class of executed instruction
system.cpu.op_class::SimdShiftAcc                   0      0.00%     35.21% # Class of executed instruction
system.cpu.op_class::SimdDiv                        0      0.00%     35.21% # Class of executed instruction
system.cpu.op_class::SimdSqrt                       0      0.00%     35.21% # Class of executed instruction
system.cpu.op_class::SimdFloatAdd             8763369     21.46%     56.67% # Class of executed instruction
system.cpu.op_class::SimdFloatAlu                   0      0.00%     56.67% # Class of executed instruction
system.cpu.op_class::SimdFloatCmp                   0      0.00%     56.67% # Class of executed instruction
system.cpu.op_class::SimdFloatCvt              340277      0.83%     57.51% # Class of executed instruction
system.cpu.op_class::SimdFloatDiv                   6      0.00%     57.51% # Class of executed instruction
system.cpu.op_class::SimdFloatMisc                  0      0.00%     57.51% # Class of executed instruction
system.cpu.op_class::SimdFloatMult            2306615      5.65%     63.15% # Class of executed instruction
system.cpu.op_class::SimdFloatMultAcc               0      0.00%     63.15% # Class of executed instruction
system.cpu.op_class::SimdFloatSqrt                  4      0.00%     63.15% # Class of executed instruction
system.cpu.op_class::SimdReduceAdd                  0      0.00%     63.15% # Class of executed instruction
system.cpu.op_class::SimdReduceAlu                  0      0.00%     63.15% # Class of executed instruction
system.cpu.op_class::SimdReduceCmp                  0      0.00%     63.15% # Class of executed instruction
system.cpu.op_class::SimdFloatReduceAdd             0      0.00%     63.15% # Class of executed instruction
system.cpu.op_class::SimdFloatReduceCmp             0      0.00%     63.15% # Class of executed instruction
system.cpu.op_class::SimdAes                        0      0.00%     63.15% # Class of executed instruction
system.cpu.op_class::SimdAesMix                     0      0.00%     63.15% # Class of executed instruction
system.cpu.op_class::SimdSha1Hash                   0      0.00%     63.15% # Class of executed instruction
system.cpu.op_class::SimdSha1Hash2                  0      0.00%     63.15% # Class of executed instruction
system.cpu.op_class::SimdSha256Hash                 0      0.00%     63.15% # Class of executed instruction
system.cpu.op_class::SimdSha256Hash2                0      0.00%     63.15% # Class of executed instruction
system.cpu.op_class::SimdShaSigma2                  0      0.00%     63.15% # Class of executed instruction
system.cpu.op_class::SimdShaSigma3                  0      0.00%     63.15% # Class of executed instruction
system.cpu.op_class::SimdPredAlu                    0      0.00%     63.15% # Class of executed instruction
system.cpu.op_class::MemRead                  1222395      2.99%     66.15% # Class of executed instruction
system.cpu.op_class::MemWrite                  415983      1.02%     67.17% # Class of executed instruction
system.cpu.op_class::FloatMemRead            10532046     25.79%     92.96% # Class of executed instruction
system.cpu.op_class::FloatMemWrite            2876972      7.04%    100.00% # Class of executed instruction
system.cpu.op_class::IprAccess                      0      0.00%    100.00% # Class of executed instruction
system.cpu.op_class::InstPrefetch                   0      0.00%    100.00% # Class of executed instruction
system.cpu.op_class::total                   40838068                       # Class of executed instruction
system.cpu.workload.numSyscalls                    77                       # Number of system calls
system.l2bus.snoop_filter.hit_multi_requests            0                       # Number of requests hitting in the snoop filter with multiple (>1) holders of the requested data.
system.l2bus.snoop_filter.hit_multi_snoops            0                       # Number of snoops hitting in the snoop filter with multiple (>1) holders of the requested data.
system.l2bus.snoop_filter.hit_single_requests       399660                       # Number of requests hitting in the snoop filter with a single holder of the requested data.
system.l2bus.snoop_filter.hit_single_snoops         1076                       # Number of snoops hitting in the snoop filter with a single holder of the requested data.
system.l2bus.snoop_filter.tot_requests         800600                       # Total number of requests made to the snoop filter.
system.l2bus.snoop_filter.tot_snoops             1076                       # Total number of snoops made to the snoop filter.
system.membus.snoop_filter.hit_multi_requests            0                       # Number of requests hitting in the snoop filter with multiple (>1) holders of the requested data.
system.membus.snoop_filter.hit_multi_snoops            0                       # Number of snoops hitting in the snoop filter with multiple (>1) holders of the requested data.
system.membus.snoop_filter.hit_single_requests        14940                       # Number of requests hitting in the snoop filter with a single holder of the requested data.
system.membus.snoop_filter.hit_single_snoops            0                       # Number of snoops hitting in the snoop filter with a single holder of the requested data.
system.membus.snoop_filter.tot_requests         46279                       # Total number of requests made to the snoop filter.
system.membus.snoop_filter.tot_snoops               0                       # Total number of snoops made to the snoop filter.
system.clk_domain.clock                          1000                       # Clock period in ticks
system.clk_domain.voltage_domain.voltage            1                       # Voltage in Volts
system.cpu.dcache.demand_hits::.cpu.data     14655290                       # number of demand (read+write) hits
system.cpu.dcache.demand_hits::total         14655290                       # number of demand (read+write) hits
system.cpu.dcache.overall_hits::.cpu.data     14655290                       # number of overall hits
system.cpu.dcache.overall_hits::total        14655290                       # number of overall hits
system.cpu.dcache.demand_misses::.cpu.data       392175                       # number of demand (read+write) misses
system.cpu.dcache.demand_misses::total         392175                       # number of demand (read+write) misses
system.cpu.dcache.overall_misses::.cpu.data       392175                       # number of overall misses
system.cpu.dcache.overall_misses::total        392175                       # number of overall misses
system.cpu.dcache.demand_miss_latency::.cpu.data  12313500000                       # number of demand (read+write) miss cycles
system.cpu.dcache.demand_miss_latency::total  12313500000                       # number of demand (read+write) miss cycles
system.cpu.dcache.overall_miss_latency::.cpu.data  12313500000                       # number of overall miss cycles
system.cpu.dcache.overall_miss_latency::total  12313500000                       # number of overall miss cycles
system.cpu.dcache.demand_accesses::.cpu.data     15047465                       # number of demand (read+write) accesses
system.cpu.dcache.demand_accesses::total     15047465                       # number of demand (read+write) accesses
system.cpu.dcache.overall_accesses::.cpu.data     15047465                       # number of overall (read+write) accesses
system.cpu.dcache.overall_accesses::total     15047465                       # number of overall (read+write) accesses
system.cpu.dcache.demand_miss_rate::.cpu.data     0.026063                       # miss rate for demand accesses
system.cpu.dcache.demand_miss_rate::total     0.026063                       # miss rate for demand accesses
system.cpu.dcache.overall_miss_rate::.cpu.data     0.026063                       # miss rate for overall accesses
system.cpu.dcache.overall_miss_rate::total     0.026063                       # miss rate for overall accesses
system.cpu.dcache.demand_avg_miss_latency::.cpu.data 31397.972844                       # average overall miss latency
system.cpu.dcache.demand_avg_miss_latency::total 31397.972844                       # average overall miss latency
system.cpu.dcache.overall_avg_miss_latency::.cpu.data 31397.972844                       # average overall miss latency
system.cpu.dcache.overall_avg_miss_latency::total 31397.972844                       # average overall miss latency
system.cpu.dcache.blocked_cycles::no_mshrs            0                       # number of cycles access was blocked
system.cpu.dcache.blocked_cycles::no_targets            0                       # number of cycles access was blocked
system.cpu.dcache.blocked::no_mshrs                 0                       # number of cycles access was blocked
system.cpu.dcache.blocked::no_targets               0                       # number of cycles access was blocked
system.cpu.dcache.avg_blocked_cycles::no_mshrs          nan                       # average number of cycles each access was blocked
system.cpu.dcache.avg_blocked_cycles::no_targets          nan                       # average number of cycles each access was blocked
system.cpu.dcache.writebacks::.writebacks       377258                       # number of writebacks
system.cpu.dcache.writebacks::total            377258                       # number of writebacks
system.cpu.dcache.demand_mshr_misses::.cpu.data       392175                       # number of demand (read+write) MSHR misses
system.cpu.dcache.demand_mshr_misses::total       392175                       # number of demand (read+write) MSHR misses
system.cpu.dcache.overall_mshr_misses::.cpu.data       392175                       # number of overall MSHR misses
system.cpu.dcache.overall_mshr_misses::total       392175                       # number of overall MSHR misses
system.cpu.dcache.demand_mshr_miss_latency::.cpu.data  11529150000                       # number of demand (read+write) MSHR miss cycles
system.cpu.dcache.demand_mshr_miss_latency::total  11529150000                       # number of demand (read+write) MSHR miss cycles
system.cpu.dcache.overall_mshr_miss_latency::.cpu.data  11529150000                       # number of overall MSHR miss cycles
system.cpu.dcache.overall_mshr_miss_latency::total  11529150000                       # number of overall MSHR miss cycles
system.cpu.dcache.demand_mshr_miss_rate::.cpu.data     0.026063                       # mshr miss rate for demand accesses
system.cpu.dcache.demand_mshr_miss_rate::total     0.026063                       # mshr miss rate for demand accesses
system.cpu.dcache.overall_mshr_miss_rate::.cpu.data     0.026063                       # mshr miss rate for overall accesses
system.cpu.dcache.overall_mshr_miss_rate::total     0.026063                       # mshr miss rate for overall accesses
system.cpu.dcache.demand_avg_mshr_miss_latency::.cpu.data 29397.972844                       # average overall mshr miss latency
system.cpu.dcache.demand_avg_mshr_miss_latency::total 29397.972844                       # average overall mshr miss latency
system.cpu.dcache.overall_avg_mshr_miss_latency::.cpu.data 29397.972844                       # average overall mshr miss latency
system.cpu.dcache.overall_avg_mshr_miss_latency::total 29397.972844                       # average overall mshr miss latency
system.cpu.dcache.replacements                 391151                       # number of replacements
system.cpu.dcache.ReadReq_hits::.cpu.data     11481471                       # number of ReadReq hits
system.cpu.dcache.ReadReq_hits::total        11481471                       # number of ReadReq hits
system.cpu.dcache.ReadReq_misses::.cpu.data       273021                       # number of ReadReq misses
system.cpu.dcache.ReadReq_misses::total        273021                       # number of ReadReq misses
system.cpu.dcache.ReadReq_miss_latency::.cpu.data   7652258000                       # number of ReadReq miss cycles
system.cpu.dcache.ReadReq_miss_latency::total   7652258000                       # number of ReadReq miss cycles
system.cpu.dcache.ReadReq_accesses::.cpu.data     11754492                       # number of ReadReq accesses(hits+misses)
system.cpu.dcache.ReadReq_accesses::total     11754492                       # number of ReadReq accesses(hits+misses)
system.cpu.dcache.ReadReq_miss_rate::.cpu.data     0.023227                       # miss rate for ReadReq accesses
system.cpu.dcache.ReadReq_miss_rate::total     0.023227                       # miss rate for ReadReq accesses
system.cpu.dcache.ReadReq_avg_miss_latency::.cpu.data 28028.093077                       # average ReadReq miss latency
system.cpu.dcache.ReadReq_avg_miss_latency::total 28028.093077                       # average ReadReq miss latency
system.cpu.dcache.ReadReq_mshr_misses::.cpu.data       273021                       # number of ReadReq MSHR misses
system.cpu.dcache.ReadReq_mshr_misses::total       273021                       # number of ReadReq MSHR misses
system.cpu.dcache.ReadReq_mshr_miss_latency::.cpu.data   7106216000                       # number of ReadReq MSHR miss cycles
system.cpu.dcache.ReadReq_mshr_miss_latency::total   7106216000                       # number of ReadReq MSHR miss cycles
system.cpu.dcache.ReadReq_mshr_miss_rate::.cpu.data     0.023227                       # mshr miss rate for ReadReq accesses
system.cpu.dcache.ReadReq_mshr_miss_rate::total     0.023227                       # mshr miss rate for ReadReq accesses
system.cpu.dcache.ReadReq_avg_mshr_miss_latency::.cpu.data 26028.093077                       # average ReadReq mshr miss latency
system.cpu.dcache.ReadReq_avg_mshr_miss_latency::total 26028.093077                       # average ReadReq mshr miss latency
system.cpu.dcache.WriteReq_hits::.cpu.data      3173819                       # number of WriteReq hits
system.cpu.dcache.WriteReq_hits::total        3173819                       # number of WriteReq hits
system.cpu.dcache.WriteReq_misses::.cpu.data       119154                       # number of WriteReq misses
system.cpu.dcache.WriteReq_misses::total       119154                       # number of WriteReq misses
system.cpu.dcache.WriteReq_miss_latency::.cpu.data   4661242000                       # number of WriteReq miss cycles
system.cpu.dcache.WriteReq_miss_latency::total   4661242000                       # number of WriteReq miss cycles
system.cpu.dcache.WriteReq_accesses::.cpu.data      3292973                       # number of WriteReq accesses(hits+misses)
system.cpu.dcache.WriteReq_accesses::total      3292973                       # number of WriteReq accesses(hits+misses)
system.cpu.dcache.WriteReq_miss_rate::.cpu.data     0.036184                       # miss rate for WriteReq accesses
system.cpu.dcache.WriteReq_miss_rate::total     0.036184                       # miss rate for WriteReq accesses
system.cpu.dcache.WriteReq_avg_miss_latency::.cpu.data 39119.475637                       # average WriteReq miss latency
system.cpu.dcache.WriteReq_avg_miss_latency::total 39119.475637                       # average WriteReq miss latency
system.cpu.dcache.WriteReq_mshr_misses::.cpu.data       119154                       # number of WriteReq MSHR misses
system.cpu.dcache.WriteReq_mshr_misses::total       119154                       # number of WriteReq MSHR misses
system.cpu.dcache.WriteReq_mshr_miss_latency::.cpu.data   4422934000                       # number of WriteReq MSHR miss cycles
system.cpu.dcache.WriteReq_mshr_miss_latency::total   4422934000                       # number of WriteReq MSHR miss cycles
system.cpu.dcache.WriteReq_mshr_miss_rate::.cpu.data     0.036184                       # mshr miss rate for WriteReq accesses
system.cpu.dcache.WriteReq_mshr_miss_rate::total     0.036184                       # mshr miss rate for WriteReq accesses
system.cpu.dcache.WriteReq_avg_mshr_miss_latency::.cpu.data 37119.475637                       # average WriteReq mshr miss latency
system.cpu.dcache.WriteReq_avg_mshr_miss_latency::total 37119.475637                       # average WriteReq mshr miss latency
system.cpu.dcache.power_state.pwrStateResidencyTicks::UNDEFINED 103261212000                       # Cumulative time (in ticks) in various power states
system.cpu.dcache.tags.tagsinuse          1021.774910                       # Cycle average of tags in use
system.cpu.dcache.tags.total_refs            15047465                       # Total number of references to valid blocks.
system.cpu.dcache.tags.sampled_refs            392175                       # Sample count of references to valid blocks.
system.cpu.dcache.tags.avg_refs             38.369261                       # Average number of references to valid blocks.
system.cpu.dcache.tags.warmup_cycle            224000                       # Cycle when the warmup percentage was hit.
system.cpu.dcache.tags.occ_blocks::.cpu.data  1021.774910                       # Average occupied blocks per requestor
system.cpu.dcache.tags.occ_percent::.cpu.data     0.997827                       # Average percentage of cache occupancy
system.cpu.dcache.tags.occ_percent::total     0.997827                       # Average percentage of cache occupancy
system.cpu.dcache.tags.occ_task_id_blocks::1024         1024                       # Occupied blocks per task id
system.cpu.dcache.tags.age_task_id_blocks_1024::0           26                       # Occupied blocks per task id
system.cpu.dcache.tags.age_task_id_blocks_1024::1          102                       # Occupied blocks per task id
system.cpu.dcache.tags.age_task_id_blocks_1024::2          895                       # Occupied blocks per task id
system.cpu.dcache.tags.age_task_id_blocks_1024::3            1                       # Occupied blocks per task id
system.cpu.dcache.tags.occ_task_id_percent::1024            1                       # Percentage of cache occupancy per task id
system.cpu.dcache.tags.tag_accesses          30487105                       # Number of tag accesses
system.cpu.dcache.tags.data_accesses         30487105                       # Number of data accesses
system.cpu.dcache.tags.power_state.pwrStateResidencyTicks::UNDEFINED 103261212000                       # Cumulative time (in ticks) in various power states
system.cpu.dtb.rdAccesses                    11754493                       # TLB accesses on read requests
system.cpu.dtb.wrAccesses                     3292997                       # TLB accesses on write requests
system.cpu.dtb.rdMisses                          5368                       # TLB misses on read requests
system.cpu.dtb.wrMisses                          1839                       # TLB misses on write requests
system.cpu.dtb.walker.power_state.pwrStateResidencyTicks::UNDEFINED 103261212000                       # Cumulative time (in ticks) in various power states
system.cpu.icache.demand_hits::.cpu.inst     30572649                       # number of demand (read+write) hits
system.cpu.icache.demand_hits::total         30572649                       # number of demand (read+write) hits
system.cpu.icache.overall_hits::.cpu.inst     30572649                       # number of overall hits
system.cpu.icache.overall_hits::total        30572649                       # number of overall hits
system.cpu.icache.demand_misses::.cpu.inst         8765                       # number of demand (read+write) misses
system.cpu.icache.demand_misses::total           8765                       # number of demand (read+write) misses
system.cpu.icache.overall_misses::.cpu.inst         8765                       # number of overall misses
system.cpu.icache.overall_misses::total          8765                       # number of overall misses
system.cpu.icache.demand_miss_latency::.cpu.inst    492122000                       # number of demand (read+write) miss cycles
system.cpu.icache.demand_miss_latency::total    492122000                       # number of demand (read+write) miss cycles
system.cpu.icache.overall_miss_latency::.cpu.inst    492122000                       # number of overall miss cycles
system.cpu.icache.overall_miss_latency::total    492122000                       # number of overall miss cycles
system.cpu.icache.demand_accesses::.cpu.inst     30581414                       # number of demand (read+write) accesses
system.cpu.icache.demand_accesses::total     30581414                       # number of demand (read+write) accesses
system.cpu.icache.overall_accesses::.cpu.inst     30581414                       # number of overall (read+write) accesses
system.cpu.icache.overall_accesses::total     30581414                       # number of overall (read+write) accesses
system.cpu.icache.demand_miss_rate::.cpu.inst     0.000287                       # miss rate for demand accesses
system.cpu.icache.demand_miss_rate::total     0.000287                       # miss rate for demand accesses
system.cpu.icache.overall_miss_rate::.cpu.inst     0.000287                       # miss rate for overall accesses
system.cpu.icache.overall_miss_rate::total     0.000287                       # miss rate for overall accesses
system.cpu.icache.demand_avg_miss_latency::.cpu.inst 56146.263548                       # average overall miss latency
system.cpu.icache.demand_avg_miss_latency::total 56146.263548                       # average overall miss latency
system.cpu.icache.overall_avg_miss_latency::.cpu.inst 56146.263548                       # average overall miss latency
system.cpu.icache.overall_avg_miss_latency::total 56146.263548                       # average overall miss latency
system.cpu.icache.blocked_cycles::no_mshrs            0                       # number of cycles access was blocked
system.cpu.icache.blocked_cycles::no_targets            0                       # number of cycles access was blocked
system.cpu.icache.blocked::no_mshrs                 0                       # number of cycles access was blocked
system.cpu.icache.blocked::no_targets               0                       # number of cycles access was blocked
system.cpu.icache.avg_blocked_cycles::no_mshrs          nan                       # average number of cycles each access was blocked
system.cpu.icache.avg_blocked_cycles::no_targets          nan                       # average number of cycles each access was blocked
system.cpu.icache.demand_mshr_misses::.cpu.inst         8765                       # number of demand (read+write) MSHR misses
system.cpu.icache.demand_mshr_misses::total         8765                       # number of demand (read+write) MSHR misses
system.cpu.icache.overall_mshr_misses::.cpu.inst         8765                       # number of overall MSHR misses
system.cpu.icache.overall_mshr_misses::total         8765                       # number of overall MSHR misses
system.cpu.icache.demand_mshr_miss_latency::.cpu.inst    474592000                       # number of demand (read+write) MSHR miss cycles
system.cpu.icache.demand_mshr_miss_latency::total    474592000                       # number of demand (read+write) MSHR miss cycles
system.cpu.icache.overall_mshr_miss_latency::.cpu.inst    474592000                       # number of overall MSHR miss cycles
system.cpu.icache.overall_mshr_miss_latency::total    474592000                       # number of overall MSHR miss cycles
system.cpu.icache.demand_mshr_miss_rate::.cpu.inst     0.000287                       # mshr miss rate for demand accesses
system.cpu.icache.demand_mshr_miss_rate::total     0.000287                       # mshr miss rate for demand accesses
system.cpu.icache.overall_mshr_miss_rate::.cpu.inst     0.000287                       # mshr miss rate for overall accesses
system.cpu.icache.overall_mshr_miss_rate::total     0.000287                       # mshr miss rate for overall accesses
system.cpu.icache.demand_avg_mshr_miss_latency::.cpu.inst 54146.263548                       # average overall mshr miss latency
system.cpu.icache.demand_avg_mshr_miss_latency::total 54146.263548                       # average overall mshr miss latency
system.cpu.icache.overall_avg_mshr_miss_latency::.cpu.inst 54146.263548                       # average overall mshr miss latency
system.cpu.icache.overall_avg_mshr_miss_latency::total 54146.263548                       # average overall mshr miss latency
system.cpu.icache.replacements                   8509                       # number of replacements
system.cpu.icache.ReadReq_hits::.cpu.inst     30572649                       # number of ReadReq hits
system.cpu.icache.ReadReq_hits::total        30572649                       # number of ReadReq hits
system.cpu.icache.ReadReq_misses::.cpu.inst         8765                       # number of ReadReq misses
system.cpu.icache.ReadReq_misses::total          8765                       # number of ReadReq misses
system.cpu.icache.ReadReq_miss_latency::.cpu.inst    492122000                       # number of ReadReq miss cycles
system.cpu.icache.ReadReq_miss_latency::total    492122000                       # number of ReadReq miss cycles
system.cpu.icache.ReadReq_accesses::.cpu.inst     30581414                       # number of ReadReq accesses(hits+misses)
system.cpu.icache.ReadReq_accesses::total     30581414                       # number of ReadReq accesses(hits+misses)
system.cpu.icache.ReadReq_miss_rate::.cpu.inst     0.000287                       # miss rate for ReadReq accesses
system.cpu.icache.ReadReq_miss_rate::total     0.000287                       # miss rate for ReadReq accesses
system.cpu.icache.ReadReq_avg_miss_latency::.cpu.inst 56146.263548                       # average ReadReq miss latency
system.cpu.icache.ReadReq_avg_miss_latency::total 56146.263548                       # average ReadReq miss latency
system.cpu.icache.ReadReq_mshr_misses::.cpu.inst         8765                       # number of ReadReq MSHR misses
system.cpu.icache.ReadReq_mshr_misses::total         8765                       # number of ReadReq MSHR misses
system.cpu.icache.ReadReq_mshr_miss_latency::.cpu.inst    474592000                       # number of ReadReq MSHR miss cycles
system.cpu.icache.ReadReq_mshr_miss_latency::total    474592000                       # number of ReadReq MSHR miss cycles
system.cpu.icache.ReadReq_mshr_miss_rate::.cpu.inst     0.000287                       # mshr miss rate for ReadReq accesses
system.cpu.icache.ReadReq_mshr_miss_rate::total     0.000287                       # mshr miss rate for ReadReq accesses
system.cpu.icache.ReadReq_avg_mshr_miss_latency::.cpu.inst 54146.263548                       # average ReadReq mshr miss latency
system.cpu.icache.ReadReq_avg_mshr_miss_latency::total 54146.263548                       # average ReadReq mshr miss latency
system.cpu.icache.power_state.pwrStateResidencyTicks::UNDEFINED 103261212000                       # Cumulative time (in ticks) in various power states
system.cpu.icache.tags.tagsinuse           255.873668                       # Cycle average of tags in use
system.cpu.icache.tags.total_refs            30581414                       # Total number of references to valid blocks.
system.cpu.icache.tags.sampled_refs              8765                       # Sample count of references to valid blocks.
system.cpu.icache.tags.avg_refs           3489.037536                       # Average number of references to valid blocks.
system.cpu.icache.tags.warmup_cycle            107000                       # Cycle when the warmup percentage was hit.
system.cpu.icache.tags.occ_blocks::.cpu.inst   255.873668                       # Average occupied blocks per requestor
system.cpu.icache.tags.occ_percent::.cpu.inst     0.999507                       # Average percentage of cache occupancy
system.cpu.icache.tags.occ_percent::total     0.999507                       # Average percentage of cache occupancy
system.cpu.icache.tags.occ_task_id_blocks::1024          256                       # Occupied blocks per task id
system.cpu.icache.tags.age_task_id_blocks_1024::0           33                       # Occupied blocks per task id
system.cpu.icache.tags.age_task_id_blocks_1024::1          107                       # Occupied blocks per task id
system.cpu.icache.tags.age_task_id_blocks_1024::2          115                       # Occupied blocks per task id
system.cpu.icache.tags.age_task_id_blocks_1024::4            1                       # Occupied blocks per task id
system.cpu.icache.tags.occ_task_id_percent::1024            1                       # Percentage of cache occupancy per task id
system.cpu.icache.tags.tag_accesses          61171593                       # Number of tag accesses
system.cpu.icache.tags.data_accesses         61171593                       # Number of data accesses
system.cpu.icache.tags.power_state.pwrStateResidencyTicks::UNDEFINED 103261212000                       # Cumulative time (in ticks) in various power states
system.cpu.interrupts.clk_domain.clock          16000                       # Clock period in ticks
system.cpu.itb.rdAccesses                           0                       # TLB accesses on read requests
system.cpu.itb.wrAccesses                    30581414                       # TLB accesses on write requests
system.cpu.itb.rdMisses                             0                       # TLB misses on read requests
system.cpu.itb.wrMisses                           132                       # TLB misses on write requests
system.cpu.itb.walker.power_state.pwrStateResidencyTicks::UNDEFINED 103261212000                       # Cumulative time (in ticks) in various power states
system.cpu.power_state.pwrStateResidencyTicks::ON 103261212000                       # Cumulative time (in ticks) in various power states
system.cpu.thread_0.numInsts                        0                       # Number of Instructions committed
system.cpu.thread_0.numOps                          0                       # Number of Ops committed
system.cpu.thread_0.numMemRefs                      0                       # Number of Memory References
system.l2bus.trans_dist::ReadResp              281786                       # Transaction distribution
system.l2bus.trans_dist::WritebackDirty        387068                       # Transaction distribution
system.l2bus.trans_dist::CleanEvict             27736                       # Transaction distribution
system.l2bus.trans_dist::ReadExReq             119154                       # Transaction distribution
system.l2bus.trans_dist::ReadExResp            119154                       # Transaction distribution
system.l2bus.trans_dist::ReadSharedReq         281786                       # Transaction distribution
system.l2bus.pkt_count_system.cpu.icache.mem_side_port::system.l2cache.cpu_side_port        26039                       # Packet count per connected requestor and responder (bytes)
system.l2bus.pkt_count_system.cpu.dcache.mem_side_port::system.l2cache.cpu_side_port      1175501                       # Packet count per connected requestor and responder (bytes)
system.l2bus.pkt_count::total                 1201540                       # Packet count per connected requestor and responder (bytes)
system.l2bus.pkt_size_system.cpu.icache.mem_side_port::system.l2cache.cpu_side_port       560960                       # Cumulative packet size per connected requestor and responder (bytes)
system.l2bus.pkt_size_system.cpu.dcache.mem_side_port::system.l2cache.cpu_side_port     49243712                       # Cumulative packet size per connected requestor and responder (bytes)
system.l2bus.pkt_size::total                 49804672                       # Cumulative packet size per connected requestor and responder (bytes)
system.l2bus.snoops                             15144                       # Total snoops (count)
system.l2bus.snoopTraffic                      627840                       # Total snoop traffic (bytes)
system.l2bus.snoop_fanout::samples             416084                       # Request fanout histogram
system.l2bus.snoop_fanout::mean              0.002586                       # Request fanout histogram
system.l2bus.snoop_fanout::stdev             0.050787                       # Request fanout histogram
system.l2bus.snoop_fanout::underflows               0      0.00%      0.00% # Request fanout histogram
system.l2bus.snoop_fanout::0                   415008     99.74%     99.74% # Request fanout histogram
system.l2bus.snoop_fanout::1                     1076      0.26%    100.00% # Request fanout histogram
system.l2bus.snoop_fanout::2                        0      0.00%    100.00% # Request fanout histogram
system.l2bus.snoop_fanout::overflows                0      0.00%    100.00% # Request fanout histogram
system.l2bus.snoop_fanout::min_value                0                       # Request fanout histogram
system.l2bus.snoop_fanout::max_value                1                       # Request fanout histogram
system.l2bus.snoop_fanout::total               416084                       # Request fanout histogram
system.l2bus.power_state.pwrStateResidencyTicks::UNDEFINED 103261212000                       # Cumulative time (in ticks) in various power states
system.l2bus.reqLayer0.occupancy           1555116000                       # Layer occupancy (ticks)
system.l2bus.reqLayer0.utilization                1.5                       # Layer utilization (%)
system.l2bus.respLayer0.occupancy            26295000                       # Layer occupancy (ticks)
system.l2bus.respLayer0.utilization               0.0                       # Layer utilization (%)
system.l2bus.respLayer1.occupancy          1176525000                       # Layer occupancy (ticks)
system.l2bus.respLayer1.utilization               1.1                       # Layer utilization (%)
system.l2cache.demand_hits::.cpu.inst            5485                       # number of demand (read+write) hits
system.l2cache.demand_hits::.cpu.data          364116                       # number of demand (read+write) hits
system.l2cache.demand_hits::total              369601                       # number of demand (read+write) hits
system.l2cache.overall_hits::.cpu.inst           5485                       # number of overall hits
system.l2cache.overall_hits::.cpu.data         364116                       # number of overall hits
system.l2cache.overall_hits::total             369601                       # number of overall hits
system.l2cache.demand_misses::.cpu.inst          3280                       # number of demand (read+write) misses
system.l2cache.demand_misses::.cpu.data         28059                       # number of demand (read+write) misses
system.l2cache.demand_misses::total             31339                       # number of demand (read+write) misses
system.l2cache.overall_misses::.cpu.inst         3280                       # number of overall misses
system.l2cache.overall_misses::.cpu.data        28059                       # number of overall misses
system.l2cache.overall_misses::total            31339                       # number of overall misses
system.l2cache.demand_miss_latency::.cpu.inst    333050000                       # number of demand (read+write) miss cycles
system.l2cache.demand_miss_latency::.cpu.data   2704271000                       # number of demand (read+write) miss cycles
system.l2cache.demand_miss_latency::total   3037321000                       # number of demand (read+write) miss cycles
system.l2cache.overall_miss_latency::.cpu.inst    333050000                       # number of overall miss cycles
system.l2cache.overall_miss_latency::.cpu.data   2704271000                       # number of overall miss cycles
system.l2cache.overall_miss_latency::total   3037321000                       # number of overall miss cycles
system.l2cache.demand_accesses::.cpu.inst         8765                       # number of demand (read+write) accesses
system.l2cache.demand_accesses::.cpu.data       392175                       # number of demand (read+write) accesses
system.l2cache.demand_accesses::total          400940                       # number of demand (read+write) accesses
system.l2cache.overall_accesses::.cpu.inst         8765                       # number of overall (read+write) accesses
system.l2cache.overall_accesses::.cpu.data       392175                       # number of overall (read+write) accesses
system.l2cache.overall_accesses::total         400940                       # number of overall (read+write) accesses
system.l2cache.demand_miss_rate::.cpu.inst     0.374216                       # miss rate for demand accesses
system.l2cache.demand_miss_rate::.cpu.data     0.071547                       # miss rate for demand accesses
system.l2cache.demand_miss_rate::total       0.078164                       # miss rate for demand accesses
system.l2cache.overall_miss_rate::.cpu.inst     0.374216                       # miss rate for overall accesses
system.l2cache.overall_miss_rate::.cpu.data     0.071547                       # miss rate for overall accesses
system.l2cache.overall_miss_rate::total      0.078164                       # miss rate for overall accesses
system.l2cache.demand_avg_miss_latency::.cpu.inst 101539.634146                       # average overall miss latency
system.l2cache.demand_avg_miss_latency::.cpu.data 96378.024876                       # average overall miss latency
system.l2cache.demand_avg_miss_latency::total 96918.248827                       # average overall miss latency
system.l2cache.overall_avg_miss_latency::.cpu.inst 101539.634146                       # average overall miss latency
system.l2cache.overall_avg_miss_latency::.cpu.data 96378.024876                       # average overall miss latency
system.l2cache.overall_avg_miss_latency::total 96918.248827                       # average overall miss latency
system.l2cache.blocked_cycles::no_mshrs             0                       # number of cycles access was blocked
system.l2cache.blocked_cycles::no_targets            0                       # number of cycles access was blocked
system.l2cache.blocked::no_mshrs                    0                       # number of cycles access was blocked
system.l2cache.blocked::no_targets                  0                       # number of cycles access was blocked
system.l2cache.avg_blocked_cycles::no_mshrs          nan                       # average number of cycles each access was blocked
system.l2cache.avg_blocked_cycles::no_targets          nan                       # average number of cycles each access was blocked
system.l2cache.writebacks::.writebacks           9810                       # number of writebacks
system.l2cache.writebacks::total                 9810                       # number of writebacks
system.l2cache.demand_mshr_misses::.cpu.inst         3280                       # number of demand (read+write) MSHR misses
system.l2cache.demand_mshr_misses::.cpu.data        28059                       # number of demand (read+write) MSHR misses
system.l2cache.demand_mshr_misses::total        31339                       # number of demand (read+write) MSHR misses
system.l2cache.overall_mshr_misses::.cpu.inst         3280                       # number of overall MSHR misses
system.l2cache.overall_mshr_misses::.cpu.data        28059                       # number of overall MSHR misses
system.l2cache.overall_mshr_misses::total        31339                       # number of overall MSHR misses
system.l2cache.demand_mshr_miss_latency::.cpu.inst    267450000                       # number of demand (read+write) MSHR miss cycles
system.l2cache.demand_mshr_miss_latency::.cpu.data   2143091000                       # number of demand (read+write) MSHR miss cycles
system.l2cache.demand_mshr_miss_latency::total   2410541000                       # number of demand (read+write) MSHR miss cycles
system.l2cache.overall_mshr_miss_latency::.cpu.inst    267450000                       # number of overall MSHR miss cycles
system.l2cache.overall_mshr_miss_latency::.cpu.data   2143091000                       # number of overall MSHR miss cycles
system.l2cache.overall_mshr_miss_latency::total   2410541000                       # number of overall MSHR miss cycles
system.l2cache.demand_mshr_miss_rate::.cpu.inst     0.374216                       # mshr miss rate for demand accesses
system.l2cache.demand_mshr_miss_rate::.cpu.data     0.071547                       # mshr miss rate for demand accesses
system.l2cache.demand_mshr_miss_rate::total     0.078164                       # mshr miss rate for demand accesses
system.l2cache.overall_mshr_miss_rate::.cpu.inst     0.374216                       # mshr miss rate for overall accesses
system.l2cache.overall_mshr_miss_rate::.cpu.data     0.071547                       # mshr miss rate for overall accesses
system.l2cache.overall_mshr_miss_rate::total     0.078164                       # mshr miss rate for overall accesses
system.l2cache.demand_avg_mshr_miss_latency::.cpu.inst 81539.634146                       # average overall mshr miss latency
system.l2cache.demand_avg_mshr_miss_latency::.cpu.data 76378.024876                       # average overall mshr miss latency
system.l2cache.demand_avg_mshr_miss_latency::total 76918.248827                       # average overall mshr miss latency
system.l2cache.overall_avg_mshr_miss_latency::.cpu.inst 81539.634146                       # average overall mshr miss latency
system.l2cache.overall_avg_mshr_miss_latency::.cpu.data 76378.024876                       # average overall mshr miss latency
system.l2cache.overall_avg_mshr_miss_latency::total 76918.248827                       # average overall mshr miss latency
system.l2cache.replacements                     15001                       # number of replacements
system.l2cache.WritebackDirty_hits::.writebacks       377255                       # number of WritebackDirty hits
system.l2cache.WritebackDirty_hits::total       377255                       # number of WritebackDirty hits
system.l2cache.WritebackDirty_misses::.writebacks            3                       # number of WritebackDirty misses
system.l2cache.WritebackDirty_misses::total            3                       # number of WritebackDirty misses
system.l2cache.WritebackDirty_accesses::.writebacks       377258                       # number of WritebackDirty accesses(hits+misses)
system.l2cache.WritebackDirty_accesses::total       377258                       # number of WritebackDirty accesses(hits+misses)
system.l2cache.WritebackDirty_miss_rate::.writebacks     0.000008                       # miss rate for WritebackDirty accesses
system.l2cache.WritebackDirty_miss_rate::total     0.000008                       # miss rate for WritebackDirty accesses
system.l2cache.WritebackDirty_mshr_misses::.writebacks            3                       # number of WritebackDirty MSHR misses
system.l2cache.WritebackDirty_mshr_misses::total            3                       # number of WritebackDirty MSHR misses
system.l2cache.WritebackDirty_mshr_miss_rate::.writebacks     0.000008                       # mshr miss rate for WritebackDirty accesses
system.l2cache.WritebackDirty_mshr_miss_rate::total     0.000008                       # mshr miss rate for WritebackDirty accesses
system.l2cache.CleanEvict_mshr_misses::.writebacks          869                       # number of CleanEvict MSHR misses
system.l2cache.CleanEvict_mshr_misses::total          869                       # number of CleanEvict MSHR misses
system.l2cache.CleanEvict_mshr_miss_rate::.writebacks          inf                       # mshr miss rate for CleanEvict accesses
system.l2cache.CleanEvict_mshr_miss_rate::total          inf                       # mshr miss rate for CleanEvict accesses
system.l2cache.ReadExReq_hits::.cpu.data        98322                       # number of ReadExReq hits
system.l2cache.ReadExReq_hits::total            98322                       # number of ReadExReq hits
system.l2cache.ReadExReq_misses::.cpu.data        20832                       # number of ReadExReq misses
system.l2cache.ReadExReq_misses::total          20832                       # number of ReadExReq misses
system.l2cache.ReadExReq_miss_latency::.cpu.data   2000490000                       # number of ReadExReq miss cycles
system.l2cache.ReadExReq_miss_latency::total   2000490000                       # number of ReadExReq miss cycles
system.l2cache.ReadExReq_accesses::.cpu.data       119154                       # number of ReadExReq accesses(hits+misses)
system.l2cache.ReadExReq_accesses::total       119154                       # number of ReadExReq accesses(hits+misses)
system.l2cache.ReadExReq_miss_rate::.cpu.data     0.174833                       # miss rate for ReadExReq accesses
system.l2cache.ReadExReq_miss_rate::total     0.174833                       # miss rate for ReadExReq accesses
system.l2cache.ReadExReq_avg_miss_latency::.cpu.data 96029.665899                       # average ReadExReq miss latency
system.l2cache.ReadExReq_avg_miss_latency::total 96029.665899                       # average ReadExReq miss latency
system.l2cache.ReadExReq_mshr_misses::.cpu.data        20832                       # number of ReadExReq MSHR misses
system.l2cache.ReadExReq_mshr_misses::total        20832                       # number of ReadExReq MSHR misses
system.l2cache.ReadExReq_mshr_miss_latency::.cpu.data   1583850000                       # number of ReadExReq MSHR miss cycles
system.l2cache.ReadExReq_mshr_miss_latency::total   1583850000                       # number of ReadExReq MSHR miss cycles
system.l2cache.ReadExReq_mshr_miss_rate::.cpu.data     0.174833                       # mshr miss rate for ReadExReq accesses
system.l2cache.ReadExReq_mshr_miss_rate::total     0.174833                       # mshr miss rate for ReadExReq accesses
system.l2cache.ReadExReq_avg_mshr_miss_latency::.cpu.data 76029.665899                       # average ReadExReq mshr miss latency
system.l2cache.ReadExReq_avg_mshr_miss_latency::total 76029.665899                       # average ReadExReq mshr miss latency
system.l2cache.ReadSharedReq_hits::.cpu.inst         5485                       # number of ReadSharedReq hits
system.l2cache.ReadSharedReq_hits::.cpu.data       265794                       # number of ReadSharedReq hits
system.l2cache.ReadSharedReq_hits::total       271279                       # number of ReadSharedReq hits
system.l2cache.ReadSharedReq_misses::.cpu.inst         3280                       # number of ReadSharedReq misses
system.l2cache.ReadSharedReq_misses::.cpu.data         7227                       # number of ReadSharedReq misses
system.l2cache.ReadSharedReq_misses::total        10507                       # number of ReadSharedReq misses
system.l2cache.ReadSharedReq_miss_latency::.cpu.inst    333050000                       # number of ReadSharedReq miss cycles
system.l2cache.ReadSharedReq_miss_latency::.cpu.data    703781000                       # number of ReadSharedReq miss cycles
system.l2cache.ReadSharedReq_miss_latency::total   1036831000                       # number of ReadSharedReq miss cycles
system.l2cache.ReadSharedReq_accesses::.cpu.inst         8765                       # number of ReadSharedReq accesses(hits+misses)
system.l2cache.ReadSharedReq_accesses::.cpu.data       273021                       # number of ReadSharedReq accesses(hits+misses)
system.l2cache.ReadSharedReq_accesses::total       281786                       # number of ReadSharedReq accesses(hits+misses)
system.l2cache.ReadSharedReq_miss_rate::.cpu.inst     0.374216                       # miss rate for ReadSharedReq accesses
system.l2cache.ReadSharedReq_miss_rate::.cpu.data     0.026470                       # miss rate for ReadSharedReq accesses
system.l2cache.ReadSharedReq_miss_rate::total     0.037287                       # miss rate for ReadSharedReq accesses
system.l2cache.ReadSharedReq_avg_miss_latency::.cpu.inst 101539.634146                       # average ReadSharedReq miss latency
system.l2cache.ReadSharedReq_avg_miss_latency::.cpu.data 97382.177944                       # average ReadSharedReq miss latency
system.l2cache.ReadSharedReq_avg_miss_latency::total 98680.022842                       # average ReadSharedReq miss latency
system.l2cache.ReadSharedReq_mshr_misses::.cpu.inst         3280                       # number of ReadSharedReq MSHR misses
system.l2cache.ReadSharedReq_mshr_misses::.cpu.data         7227                       # number of ReadSharedReq MSHR misses
system.l2cache.ReadSharedReq_mshr_misses::total        10507                       # number of ReadSharedReq MSHR misses
system.l2cache.ReadSharedReq_mshr_miss_latency::.cpu.inst    267450000                       # number of ReadSharedReq MSHR miss cycles
system.l2cache.ReadSharedReq_mshr_miss_latency::.cpu.data    559241000                       # number of ReadSharedReq MSHR miss cycles
system.l2cache.ReadSharedReq_mshr_miss_latency::total    826691000                       # number of ReadSharedReq MSHR miss cycles
system.l2cache.ReadSharedReq_mshr_miss_rate::.cpu.inst     0.374216                       # mshr miss rate for ReadSharedReq accesses
system.l2cache.ReadSharedReq_mshr_miss_rate::.cpu.data     0.026470                       # mshr miss rate for ReadSharedReq accesses
system.l2cache.ReadSharedReq_mshr_miss_rate::total     0.037287                       # mshr miss rate for ReadSharedReq accesses
system.l2cache.ReadSharedReq_avg_mshr_miss_latency::.cpu.inst 81539.634146                       # average ReadSharedReq mshr miss latency
system.l2cache.ReadSharedReq_avg_mshr_miss_latency::.cpu.data 77382.177944                       # average ReadSharedReq mshr miss latency
system.l2cache.ReadSharedReq_avg_mshr_miss_latency::total 78680.022842                       # average ReadSharedReq mshr miss latency
system.l2cache.power_state.pwrStateResidencyTicks::UNDEFINED 103261212000                       # Cumulative time (in ticks) in various power states
system.l2cache.replacement_policy.totalBypasses          146                       # Total number of cache bypasses
system.l2cache.replacement_policy.effectiveBypasses            5                       # Bypasses that correctly skipped non-reused blocks
system.l2cache.replacement_policy.ineffectiveBypasses          123                       # Bypasses that incorrectly skipped requested blocks
system.l2cache.replacement_policy.virtualEffectiveBypasses           40                       # Virtual bypasses correctly predicting non-reused blocks
system.l2cache.replacement_policy.virtualIneffectiveBypasses         1421                       # Virtual bypasses incorrectly predicting requested blocks
system.l2cache.tags.tagsinuse            15887.355259                       # Cycle average of tags in use
system.l2cache.tags.total_refs                 799585                       # Total number of references to valid blocks.
system.l2cache.tags.sampled_refs                31385                       # Sample count of references to valid blocks.
system.l2cache.tags.avg_refs                25.476661                       # Average number of references to valid blocks.
system.l2cache.tags.warmup_cycle                86000                       # Cycle when the warmup percentage was hit.
system.l2cache.tags.occ_blocks::.writebacks    37.934506                       # Average occupied blocks per requestor
system.l2cache.tags.occ_blocks::.cpu.inst   292.126669                       # Average occupied blocks per requestor
system.l2cache.tags.occ_blocks::.cpu.data 15557.294084                       # Average occupied blocks per requestor
system.l2cache.tags.occ_percent::.writebacks     0.002315                       # Average percentage of cache occupancy
system.l2cache.tags.occ_percent::.cpu.inst     0.017830                       # Average percentage of cache occupancy
system.l2cache.tags.occ_percent::.cpu.data     0.949542                       # Average percentage of cache occupancy
system.l2cache.tags.occ_percent::total       0.969687                       # Average percentage of cache occupancy
system.l2cache.tags.occ_task_id_blocks::1024        16384                       # Occupied blocks per task id
system.l2cache.tags.age_task_id_blocks_1024::0           56                       # Occupied blocks per task id
system.l2cache.tags.age_task_id_blocks_1024::1          127                       # Occupied blocks per task id
system.l2cache.tags.age_task_id_blocks_1024::2         1645                       # Occupied blocks per task id
system.l2cache.tags.age_task_id_blocks_1024::3          354                       # Occupied blocks per task id
system.l2cache.tags.age_task_id_blocks_1024::4        14202                       # Occupied blocks per task id
system.l2cache.tags.occ_task_id_percent::1024            1                       # Percentage of cache occupancy per task id
system.l2cache.tags.tag_accesses              6436185                       # Number of tag accesses
system.l2cache.tags.data_accesses             6436185                       # Number of data accesses
system.l2cache.tags.power_state.pwrStateResidencyTicks::UNDEFINED 103261212000                       # Cumulative time (in ticks) in various power states
system.mem_ctrl.avgPriority_.writebacks::samples      9757.00                       # Average QoS priority value for accepted requests
system.mem_ctrl.avgPriority_.cpu.inst::samples      3280.00                       # Average QoS priority value for accepted requests
system.mem_ctrl.avgPriority_.cpu.data::samples     27805.00                       # Average QoS priority value for accepted requests
system.mem_ctrl.priorityMinLatency       0.000000018750                       # per QoS priority minimum request to response latency (s)
system.mem_ctrl.priorityMaxLatency       0.018368010500                       # per QoS priority maximum request to response latency (s)
system.mem_ctrl.numReadWriteTurnArounds           560                       # Number of turnarounds from READ to WRITE
system.mem_ctrl.numWriteReadTurnArounds           560                       # Number of turnarounds from WRITE to READ
system.mem_ctrl.numStayReadState                98302                       # Number of times bus staying in READ state
system.mem_ctrl.numStayWriteState                9191                       # Number of times bus staying in WRITE state
system.mem_ctrl.readReqs                        31339                       # Number of read requests accepted
system.mem_ctrl.writeReqs                        9813                       # Number of write requests accepted
system.mem_ctrl.readBursts                      31339                       # Number of controller read bursts, including those serviced by the write queue
system.mem_ctrl.writeBursts                      9813                       # Number of controller write bursts, including those merged in the write queue
system.mem_ctrl.servicedByWrQ                     254                       # Number of controller read bursts serviced by the write queue
system.mem_ctrl.mergedWrBursts                     56                       # Number of controller write bursts merged with an existing one
system.mem_ctrl.neitherReadNorWriteReqs             0                       # Number of requests that are neither read nor write
system.mem_ctrl.avgRdQLen                        1.00                       # Average read queue length when enqueuing
system.mem_ctrl.avgWrQLen                       22.29                       # Average write queue length when enqueuing
system.mem_ctrl.numRdRetry                          0                       # Number of times read queue was full causing retry
system.mem_ctrl.numWrRetry                          0                       # Number of times write queue was full causing retry
system.mem_ctrl.readPktSize::0                      0                       # Read request sizes (log2)
system.mem_ctrl.readPktSize::1                      0                       # Read request sizes (log2)
system.mem_ctrl.readPktSize::2                      0                       # Read request sizes (log2)
system.mem_ctrl.readPktSize::3                      0                       # Read request sizes (log2)
system.mem_ctrl.readPktSize::4                      0                       # Read request sizes (log2)
system.mem_ctrl.readPktSize::5                      0                       # Read request sizes (log2)
system.mem_ctrl.readPktSize::6                  31339                       # Read request sizes (log2)
system.mem_ctrl.writePktSize::0                     0                       # Write request sizes (log2)
system.mem_ctrl.writePktSize::1                     0                       # Write request sizes (log2)
system.mem_ctrl.writePktSize::2                     0                       # Write request sizes (log2)
system.mem_ctrl.writePktSize::3                     0                       # Write request sizes (log2)
system.mem_ctrl.writePktSize::4                     0                       # Write request sizes (log2)
system.mem_ctrl.writePktSize::5                     0                       # Write request sizes (log2)
system.mem_ctrl.writePktSize::6                  9813                       # Write request sizes (log2)
system.mem_ctrl.rdQLenPdf::0                    31083                       # What read queue length does an incoming req see
system.mem_ctrl.rdQLenPdf::1                        2                       # What read queue length does an incoming req see
system.mem_ctrl.rdQLenPdf::2                        0                       # What read queue length does an incoming req see
system.mem_ctrl.rdQLenPdf::3                        0                       # What read queue length does an incoming req see
system.mem_ctrl.rdQLenPdf::4                        0                       # What read queue length does an incoming req see
system.mem_ctrl.rdQLenPdf::5                        0                       # What read queue length does an incoming req see
system.mem_ctrl.rdQLenPdf::6                        0                       # What read queue length does an incoming req see
system.mem_ctrl.rdQLenPdf::7                        0                       # What read queue length does an incoming req see
system.mem_ctrl.rdQLenPdf::8                        0                       # What read queue length does an incoming req see
system.mem_ctrl.rdQLenPdf::9                        0                       # What read queue length does an incoming req see
system.mem_ctrl.rdQLenPdf::10                       0                       # What read queue length does an incoming req see
system.mem_ctrl.rdQLenPdf::11                       0                       # What read queue length does an incoming req see
system.mem_ctrl.rdQLenPdf::12                       0                       # What read queue length does an incoming req see
system.mem_ctrl.rdQLenPdf::13                       0                       # What read queue length does an incoming req see
system.mem_ctrl.rdQLenPdf::14                       0                       # What read queue length does an incoming req see
system.mem_ctrl.rdQLenPdf::15                       0                       # What read queue length does an incoming req see
system.mem_ctrl.rdQLenPdf::16                       0                       # What read queue length does an incoming req see
system.mem_ctrl.rdQLenPdf::17                       0                       # What read queue length does an incoming req see
system.mem_ctrl.rdQLenPdf::18                       0                       # What read queue length does an incoming req see
system.mem_ctrl.rdQLenPdf::19                       0                       # What read queue length does an incoming req see
system.mem_ctrl.rdQLenPdf::20                       0                       # What read queue length does an incoming req see
system.mem_ctrl.rdQLenPdf::21                       0                       # What read queue length does an incoming req see
system.mem_ctrl.rdQLenPdf::22                       0                       # What read queue length does an incoming req see
system.mem_ctrl.rdQLenPdf::23                       0                       # What read queue length does an incoming req see
system.mem_ctrl.rdQLenPdf::24                       0                       # What read queue length does an incoming req see
system.mem_ctrl.rdQLenPdf::25                       0                       # What read queue length does an incoming req see
system.mem_ctrl.rdQLenPdf::26                       0                       # What read queue length does an incoming req see
system.mem_ctrl.rdQLenPdf::27                       0                       # What read queue length does an incoming req see
system.mem_ctrl.rdQLenPdf::28                       0                       # What read queue length does an incoming req see
system.mem_ctrl.rdQLenPdf::29                       0                       # What read queue length does an incoming req see
system.mem_ctrl.rdQLenPdf::30                       0                       # What read queue length does an incoming req see
system.mem_ctrl.rdQLenPdf::31                       0                       # What read queue length does an incoming req see
system.mem_ctrl.wrQLenPdf::0                        1                       # What write queue length does an incoming req see
system.mem_ctrl.wrQLenPdf::1                        1                       # What write queue length does an incoming req see
system.mem_ctrl.wrQLenPdf::2                        1                       # What write queue length does an incoming req see
system.mem_ctrl.wrQLenPdf::3                        1                       # What write queue length does an incoming req see
system.mem_ctrl.wrQLenPdf::4                        1                       # What write queue length does an incoming req see
system.mem_ctrl.wrQLenPdf::5                        1                       # What write queue length does an incoming req see
system.mem_ctrl.wrQLenPdf::6                        1                       # What write queue length does an incoming req see
system.mem_ctrl.wrQLenPdf::7                        1                       # What write queue length does an incoming req see
system.mem_ctrl.wrQLenPdf::8                        1                       # What write queue length does an incoming req see
system.mem_ctrl.wrQLenPdf::9                        1                       # What write queue length does an incoming req see
system.mem_ctrl.wrQLenPdf::10                       1                       # What write queue length does an incoming req see
system.mem_ctrl.wrQLenPdf::11                       1                       # What write queue length does an incoming req see
system.mem_ctrl.wrQLenPdf::12                       1                       # What write queue length does an incoming req see
system.mem_ctrl.wrQLenPdf::13                       1                       # What write queue length does an incoming req see
system.mem_ctrl.wrQLenPdf::14                       1                       # What write queue length does an incoming req see
system.mem_ctrl.wrQLenPdf::15                     385                       # What write queue length does an incoming req see
system.mem_ctrl.wrQLenPdf::16                     393                       # What write queue length does an incoming req see
system.mem_ctrl.wrQLenPdf::17                     561                       # What write queue length does an incoming req see
system.mem_ctrl.wrQLenPdf::18                     561                       # What write queue length does an incoming req see
system.mem_ctrl.wrQLenPdf::19                     560                       # What write queue length does an incoming req see
system.mem_ctrl.wrQLenPdf::20                     562                       # What write queue length does an incoming req see
system.mem_ctrl.wrQLenPdf::21                     560                       # What write queue length does an incoming req see
system.mem_ctrl.wrQLenPdf::22                     560                       # What write queue length does an incoming req see
system.mem_ctrl.wrQLenPdf::23                     560                       # What write queue length does an incoming req see
system.mem_ctrl.wrQLenPdf::24                     560                       # What write queue length does an incoming req see
system.mem_ctrl.wrQLenPdf::25                     560                       # What write queue length does an incoming req see
system.mem_ctrl.wrQLenPdf::26                     560                       # What write queue length does an incoming req see
system.mem_ctrl.wrQLenPdf::27                     560                       # What write queue length does an incoming req see
system.mem_ctrl.wrQLenPdf::28                     560                       # What write queue length does an incoming req see
system.mem_ctrl.wrQLenPdf::29                     560                       # What write queue length does an incoming req see
system.mem_ctrl.wrQLenPdf::30                     560                       # What write queue length does an incoming req see
system.mem_ctrl.wrQLenPdf::31                     560                       # What write queue length does an incoming req see
system.mem_ctrl.wrQLenPdf::32                     560                       # What write queue length does an incoming req see
system.mem_ctrl.wrQLenPdf::33                       0                       # What write queue length does an incoming req see
system.mem_ctrl.wrQLenPdf::34                       0                       # What write queue length does an incoming req see
system.mem_ctrl.wrQLenPdf::35                       0                       # What write queue length does an incoming req see
system.mem_ctrl.wrQLenPdf::36                       0                       # What write queue length does an incoming req see
system.mem_ctrl.wrQLenPdf::37                       0                       # What write queue length does an incoming req see
system.mem_ctrl.wrQLenPdf::38                       0                       # What write queue length does an incoming req see
system.mem_ctrl.wrQLenPdf::39                       0                       # What write queue length does an incoming req see
system.mem_ctrl.wrQLenPdf::40                       0                       # What write queue length does an incoming req see
system.mem_ctrl.wrQLenPdf::41                       0                       # What write queue length does an incoming req see
system.mem_ctrl.wrQLenPdf::42                       0                       # What write queue length does an incoming req see
system.mem_ctrl.wrQLenPdf::43                       0                       # What write queue length does an incoming req see
system.mem_ctrl.wrQLenPdf::44                       0                       # What write queue length does an incoming req see
system.mem_ctrl.wrQLenPdf::45                       0                       # What write queue length does an incoming req see
system.mem_ctrl.wrQLenPdf::46                       0                       # What write queue length does an incoming req see
system.mem_ctrl.wrQLenPdf::47                       0                       # What write queue length does an incoming req see
system.mem_ctrl.wrQLenPdf::48                       0                       # What write queue length does an incoming req see
system.mem_ctrl.wrQLenPdf::49                       0                       # What write queue length does an incoming req see
system.mem_ctrl.wrQLenPdf::50                       0                       # What write queue length does an incoming req see
system.mem_ctrl.wrQLenPdf::51                       0                       # What write queue length does an incoming req see
system.mem_ctrl.wrQLenPdf::52                       0                       # What write queue length does an incoming req see
system.mem_ctrl.wrQLenPdf::53                       0                       # What write queue length does an incoming req see
system.mem_ctrl.wrQLenPdf::54                       0                       # What write queue length does an incoming req see
system.mem_ctrl.wrQLenPdf::55                       0                       # What write queue length does an incoming req see
system.mem_ctrl.wrQLenPdf::56                       0                       # What write queue length does an incoming req see
system.mem_ctrl.wrQLenPdf::57                       0                       # What write queue length does an incoming req see
system.mem_ctrl.wrQLenPdf::58                       0                       # What write queue length does an incoming req see
system.mem_ctrl.wrQLenPdf::59                       0                       # What write queue length does an incoming req see
system.mem_ctrl.wrQLenPdf::60                       0                       # What write queue length does an incoming req see
system.mem_ctrl.wrQLenPdf::61                       0                       # What write queue length does an incoming req see
system.mem_ctrl.wrQLenPdf::62                       0                       # What write queue length does an incoming req see
system.mem_ctrl.wrQLenPdf::63                       0                       # What write queue length does an incoming req see
system.mem_ctrl.rdPerTurnAround::samples          560                       # Reads before turning the bus around for writes
system.mem_ctrl.rdPerTurnAround::mean       55.505357                       # Reads before turning the bus around for writes
system.mem_ctrl.rdPerTurnAround::gmean      23.047752                       # Reads before turning the bus around for writes
system.mem_ctrl.rdPerTurnAround::stdev     578.306209                       # Reads before turning the bus around for writes
system.mem_ctrl.rdPerTurnAround::0-511            558     99.64%     99.64% # Reads before turning the bus around for writes
system.mem_ctrl.rdPerTurnAround::1024-1535            1      0.18%     99.82% # Reads before turning the bus around for writes
system.mem_ctrl.rdPerTurnAround::13312-13823            1      0.18%    100.00% # Reads before turning the bus around for writes
system.mem_ctrl.rdPerTurnAround::total            560                       # Reads before turning the bus around for writes
system.mem_ctrl.wrPerTurnAround::samples          560                       # Writes before turning the bus around for reads
system.mem_ctrl.wrPerTurnAround::mean       17.389286                       # Writes before turning the bus around for reads
system.mem_ctrl.wrPerTurnAround::gmean      17.364248                       # Writes before turning the bus around for reads
system.mem_ctrl.wrPerTurnAround::stdev       0.919998                       # Writes before turning the bus around for reads
system.mem_ctrl.wrPerTurnAround::16               168     30.00%     30.00% # Writes before turning the bus around for reads
system.mem_ctrl.wrPerTurnAround::17                 8      1.43%     31.43% # Writes before turning the bus around for reads
system.mem_ctrl.wrPerTurnAround::18               382     68.21%     99.64% # Writes before turning the bus around for reads
system.mem_ctrl.wrPerTurnAround::19                 2      0.36%    100.00% # Writes before turning the bus around for reads
system.mem_ctrl.wrPerTurnAround::total            560                       # Writes before turning the bus around for reads
system.mem_ctrl.bytesReadWrQ                    16256                       # Total number of bytes read from write queue
system.mem_ctrl.bytesReadSys                  2005696                       # Total read bytes from the system interface side
system.mem_ctrl.bytesWrittenSys                628032                       # Total written bytes from the system interface side
system.mem_ctrl.avgRdBWSys                      19.42                       # Average system read bandwidth in MiByte/s
system.mem_ctrl.avgWrBWSys                       6.08                       # Average system write bandwidth in MiByte/s
system.mem_ctrl.totGap                   103261174000                       # Total gap between requests
system.mem_ctrl.avgGap                     2509262.59                       # Average gap between requests
system.mem_ctrl.requestorReadBytes::.cpu.inst       209920                       # Per-requestor bytes read from memory
system.mem_ctrl.requestorReadBytes::.cpu.data      1779520                       # Per-requestor bytes read from memory
system.mem_ctrl.requestorWriteBytes::.writebacks       623232                       # Per-requestor bytes write to memory
system.mem_ctrl.requestorReadRate::.cpu.inst 2032902.732150771189                       # Per-requestor bytes read from memory rate (Bytes/sec)
system.mem_ctrl.requestorReadRate::.cpu.data 17233189.166906155646                       # Per-requestor bytes read from memory rate (Bytes/sec)
system.mem_ctrl.requestorWriteRate::.writebacks 6035489.879781771451                       # Per-requestor bytes write to memory rate (Bytes/sec)
system.mem_ctrl.requestorReadAccesses::.cpu.inst         3280                       # Per-requestor read serviced memory accesses
system.mem_ctrl.requestorReadAccesses::.cpu.data        28059                       # Per-requestor read serviced memory accesses
system.mem_ctrl.requestorWriteAccesses::.writebacks         9813                       # Per-requestor write serviced memory accesses
system.mem_ctrl.requestorReadTotalLat::.cpu.inst     99065250                       # Per-requestor read total memory access latency
system.mem_ctrl.requestorReadTotalLat::.cpu.data    706527500                       # Per-requestor read total memory access latency
system.mem_ctrl.requestorWriteTotalLat::.writebacks 2223950285250                       # Per-requestor write total memory access latency
system.mem_ctrl.requestorReadAvgLat::.cpu.inst     30202.82                       # Per-requestor read average memory access latency
system.mem_ctrl.requestorReadAvgLat::.cpu.data     25180.07                       # Per-requestor read average memory access latency
system.mem_ctrl.requestorWriteAvgLat::.writebacks 226633066.88                       # Per-requestor write average memory access latency
system.mem_ctrl.dram.bytes_read::.cpu.inst       209920                       # Number of bytes read from this memory
system.mem_ctrl.dram.bytes_read::.cpu.data      1795776                       # Number of bytes read from this memory
system.mem_ctrl.dram.bytes_read::total        2005696                       # Number of bytes read from this memory
system.mem_ctrl.dram.bytes_inst_read::.cpu.inst       209920                       # Number of instructions bytes read from this memory
system.mem_ctrl.dram.bytes_inst_read::total       209920                       # Number of instructions bytes read from this memory
system.mem_ctrl.dram.bytes_written::.writebacks       628032                       # Number of bytes written to this memory
system.mem_ctrl.dram.bytes_written::total       628032                       # Number of bytes written to this memory
system.mem_ctrl.dram.num_reads::.cpu.inst         3280                       # Number of read requests responded to by this memory
system.mem_ctrl.dram.num_reads::.cpu.data        28059                       # Number of read requests responded to by this memory
system.mem_ctrl.dram.num_reads::total           31339                       # Number of read requests responded to by this memory
system.mem_ctrl.dram.num_writes::.writebacks         9813                       # Number of write requests responded to by this memory
system.mem_ctrl.dram.num_writes::total           9813                       # Number of write requests responded to by this memory
system.mem_ctrl.dram.bw_read::.cpu.inst       2032903                       # Total read bandwidth from this memory (bytes/s)
system.mem_ctrl.dram.bw_read::.cpu.data      17390615                       # Total read bandwidth from this memory (bytes/s)
system.mem_ctrl.dram.bw_read::total          19423518                       # Total read bandwidth from this memory (bytes/s)
system.mem_ctrl.dram.bw_inst_read::.cpu.inst      2032903                       # Instruction read bandwidth from this memory (bytes/s)
system.mem_ctrl.dram.bw_inst_read::total      2032903                       # Instruction read bandwidth from this memory (bytes/s)
system.mem_ctrl.dram.bw_write::.writebacks      6081974                       # Write bandwidth from this memory (bytes/s)
system.mem_ctrl.dram.bw_write::total          6081974                       # Write bandwidth from this memory (bytes/s)
system.mem_ctrl.dram.bw_total::.writebacks      6081974                       # Total bandwidth to/from this memory (bytes/s)
system.mem_ctrl.dram.bw_total::.cpu.inst      2032903                       # Total bandwidth to/from this memory (bytes/s)
system.mem_ctrl.dram.bw_total::.cpu.data     17390615                       # Total bandwidth to/from this memory (bytes/s)
system.mem_ctrl.dram.bw_total::total         25505492                       # Total bandwidth to/from this memory (bytes/s)
system.mem_ctrl.dram.readBursts                 31085                       # Number of DRAM read bursts
system.mem_ctrl.dram.writeBursts                 9738                       # Number of DRAM write bursts
system.mem_ctrl.dram.perBankRdBursts::0          1719                       # Per bank write bursts
system.mem_ctrl.dram.perBankRdBursts::1          1915                       # Per bank write bursts
system.mem_ctrl.dram.perBankRdBursts::2          1696                       # Per bank write bursts
system.mem_ctrl.dram.perBankRdBursts::3          2855                       # Per bank write bursts
system.mem_ctrl.dram.perBankRdBursts::4          4498                       # Per bank write bursts
system.mem_ctrl.dram.perBankRdBursts::5          2599                       # Per bank write bursts
system.mem_ctrl.dram.perBankRdBursts::6          1181                       # Per bank write bursts
system.mem_ctrl.dram.perBankRdBursts::7          1448                       # Per bank write bursts
system.mem_ctrl.dram.perBankRdBursts::8          1585                       # Per bank write bursts
system.mem_ctrl.dram.perBankRdBursts::9          2086                       # Per bank write bursts
system.mem_ctrl.dram.perBankRdBursts::10         1636                       # Per bank write bursts
system.mem_ctrl.dram.perBankRdBursts::11         1637                       # Per bank write bursts
system.mem_ctrl.dram.perBankRdBursts::12         1853                       # Per bank write bursts
system.mem_ctrl.dram.perBankRdBursts::13         1696                       # Per bank write bursts
system.mem_ctrl.dram.perBankRdBursts::14         1456                       # Per bank write bursts
system.mem_ctrl.dram.perBankRdBursts::15         1225                       # Per bank write bursts
system.mem_ctrl.dram.perBankWrBursts::0           441                       # Per bank write bursts
system.mem_ctrl.dram.perBankWrBursts::1           547                       # Per bank write bursts
system.mem_ctrl.dram.perBankWrBursts::2           417                       # Per bank write bursts
system.mem_ctrl.dram.perBankWrBursts::3          1101                       # Per bank write bursts
system.mem_ctrl.dram.perBankWrBursts::4          2171                       # Per bank write bursts
system.mem_ctrl.dram.perBankWrBursts::5           923                       # Per bank write bursts
system.mem_ctrl.dram.perBankWrBursts::6            83                       # Per bank write bursts
system.mem_ctrl.dram.perBankWrBursts::7           299                       # Per bank write bursts
system.mem_ctrl.dram.perBankWrBursts::8           375                       # Per bank write bursts
system.mem_ctrl.dram.perBankWrBursts::9           706                       # Per bank write bursts
system.mem_ctrl.dram.perBankWrBursts::10          437                       # Per bank write bursts
system.mem_ctrl.dram.perBankWrBursts::11          505                       # Per bank write bursts
system.mem_ctrl.dram.perBankWrBursts::12          677                       # Per bank write bursts
system.mem_ctrl.dram.perBankWrBursts::13          547                       # Per bank write bursts
system.mem_ctrl.dram.perBankWrBursts::14          339                       # Per bank write bursts
system.mem_ctrl.dram.perBankWrBursts::15          170                       # Per bank write bursts
system.mem_ctrl.dram.totQLat                222749000                       # Total ticks spent queuing
system.mem_ctrl.dram.totBusLat              155425000                       # Total ticks spent in databus transfers
system.mem_ctrl.dram.totMemAccLat           805592750                       # Total ticks spent from burst creation until serviced by the DRAM
system.mem_ctrl.dram.avgQLat                  7165.80                       # Average queueing delay per DRAM burst
system.mem_ctrl.dram.avgBusLat                5000.00                       # Average bus latency per DRAM burst
system.mem_ctrl.dram.avgMemAccLat            25915.80                       # Average memory access latency per DRAM burst
system.mem_ctrl.dram.readRowHits                25498                       # Number of row buffer hits during reads
system.mem_ctrl.dram.writeRowHits                7854                       # Number of row buffer hits during writes
system.mem_ctrl.dram.readRowHitRate             82.03                       # Row buffer hit rate for reads
system.mem_ctrl.dram.writeRowHitRate            80.65                       # Row buffer hit rate for writes
system.mem_ctrl.dram.bytesPerActivate::samples         7460                       # Bytes accessed per row activation
system.mem_ctrl.dram.bytesPerActivate::mean   350.035389                       # Bytes accessed per row activation
system.mem_ctrl.dram.bytesPerActivate::gmean   229.803285                       # Bytes accessed per row activation
system.mem_ctrl.dram.bytesPerActivate::stdev   311.690230                       # Bytes accessed per row activation
system.mem_ctrl.dram.bytesPerActivate::0-127         1772     23.75%     23.75% # Bytes accessed per row activation
system.mem_ctrl.dram.bytesPerActivate::128-255         1949     26.13%     49.88% # Bytes accessed per row activation
system.mem_ctrl.dram.bytesPerActivate::256-383          986     13.22%     63.10% # Bytes accessed per row activation
system.mem_ctrl.dram.bytesPerActivate::384-511          542      7.27%     70.36% # Bytes accessed per row activation
system.mem_ctrl.dram.bytesPerActivate::512-639          946     12.68%     83.04% # Bytes accessed per row activation
system.mem_ctrl.dram.bytesPerActivate::640-767          172      2.31%     85.35% # Bytes accessed per row activation
system.mem_ctrl.dram.bytesPerActivate::768-895          149      2.00%     87.35% # Bytes accessed per row activation
system.mem_ctrl.dram.bytesPerActivate::896-1023          123      1.65%     88.99% # Bytes accessed per row activation
system.mem_ctrl.dram.bytesPerActivate::1024-1151          821     11.01%    100.00% # Bytes accessed per row activation
system.mem_ctrl.dram.bytesPerActivate::total         7460                       # Bytes accessed per row activation
system.mem_ctrl.dram.bytesRead                1989440                       # Total number of bytes read from DRAM
system.mem_ctrl.dram.bytesWritten              623232                       # Total number of bytes written to DRAM
system.mem_ctrl.dram.avgRdBW                19.266092                       # Average DRAM read bandwidth in MiBytes/s
system.mem_ctrl.dram.avgWrBW                 6.035490                       # Average DRAM write bandwidth in MiBytes/s
system.mem_ctrl.dram.peakBW                  12800.00                       # Theoretical peak bandwidth in MiByte/s
system.mem_ctrl.dram.busUtil                     0.20                       # Data bus utilization in percentage
system.mem_ctrl.dram.busUtilRead                 0.15                       # Data bus utilization in percentage for reads
system.mem_ctrl.dram.busUtilWrite                0.05                       # Data bus utilization in percentage for writes
system.mem_ctrl.dram.pageHitRate                81.70                       # Row buffer hit rate, read and write combined
system.mem_ctrl.dram.power_state.pwrStateResidencyTicks::UNDEFINED 103261212000                       # Cumulative time (in ticks) in various power states
system.mem_ctrl.dram.rank0.actEnergy         33086760                       # Energy for activate commands per rank (pJ)
system.mem_ctrl.dram.rank0.preEnergy         17563260                       # Energy for precharge commands per rank (pJ)
system.mem_ctrl.dram.rank0.readEnergy       127884540                       # Energy for read commands per rank (pJ)
system.mem_ctrl.dram.rank0.writeEnergy       31226040                       # Energy for write commands per rank (pJ)
system.mem_ctrl.dram.rank0.refreshEnergy 8150741040.000001                       # Energy for refresh commands per rank (pJ)
system.mem_ctrl.dram.rank0.actBackEnergy   6992003610                       # Energy for active background per rank (pJ)
system.mem_ctrl.dram.rank0.preBackEnergy  33764302560                       # Energy for precharge background per rank (pJ)
system.mem_ctrl.dram.rank0.actPowerDownEnergy            0                       # Energy for active power-down per rank (pJ)
system.mem_ctrl.dram.rank0.prePowerDownEnergy            0                       # Energy for precharge power-down per rank (pJ)
system.mem_ctrl.dram.rank0.selfRefreshEnergy            0                       # Energy for self refresh per rank (pJ)
system.mem_ctrl.dram.rank0.totalEnergy    49116807810                       # Total energy per rank (pJ)
system.mem_ctrl.dram.rank0.averagePower    475.655930                       # Core power per rank (mW)
system.mem_ctrl.dram.rank0.totalIdleTime            0                       # Total Idle time Per DRAM Rank
system.mem_ctrl.dram.rank0.pwrStateTime::IDLE  87710127500                       # Time in different power states
system.mem_ctrl.dram.rank0.pwrStateTime::REF   3447860000                       # Time in different power states
system.mem_ctrl.dram.rank0.pwrStateTime::SREF            0                       # Time in different power states
system.mem_ctrl.dram.rank0.pwrStateTime::PRE_PDN            0                       # Time in different power states
system.mem_ctrl.dram.rank0.pwrStateTime::ACT  12103224500                       # Time in different power states
system.mem_ctrl.dram.rank0.pwrStateTime::ACT_PDN            0                       # Time in different power states
system.mem_ctrl.dram.rank1.actEnergy         20256180                       # Energy for activate commands per rank (pJ)
system.mem_ctrl.dram.rank1.preEnergy         10747440                       # Energy for precharge commands per rank (pJ)
system.mem_ctrl.dram.rank1.readEnergy        94062360                       # Energy for read commands per rank (pJ)
system.mem_ctrl.dram.rank1.writeEnergy       19606320                       # Energy for write commands per rank (pJ)
system.mem_ctrl.dram.rank1.refreshEnergy 8150741040.000001                       # Energy for refresh commands per rank (pJ)
system.mem_ctrl.dram.rank1.actBackEnergy   4790423640                       # Energy for active background per rank (pJ)
system.mem_ctrl.dram.rank1.preBackEnergy  35618264640                       # Energy for precharge background per rank (pJ)
system.mem_ctrl.dram.rank1.actPowerDownEnergy            0                       # Energy for active power-down per rank (pJ)
system.mem_ctrl.dram.rank1.prePowerDownEnergy            0                       # Energy for precharge power-down per rank (pJ)
system.mem_ctrl.dram.rank1.selfRefreshEnergy            0                       # Energy for self refresh per rank (pJ)
system.mem_ctrl.dram.rank1.totalEnergy    48704101620                       # Total energy per rank (pJ)
system.mem_ctrl.dram.rank1.averagePower    471.659209                       # Core power per rank (mW)
system.mem_ctrl.dram.rank1.totalIdleTime            0                       # Total Idle time Per DRAM Rank
system.mem_ctrl.dram.rank1.pwrStateTime::IDLE  92551670250                       # Time in different power states
system.mem_ctrl.dram.rank1.pwrStateTime::REF   3447860000                       # Time in different power states
system.mem_ctrl.dram.rank1.pwrStateTime::SREF            0                       # Time in different power states
system.mem_ctrl.dram.rank1.pwrStateTime::PRE_PDN            0                       # Time in different power states
system.mem_ctrl.dram.rank1.pwrStateTime::ACT   7261681750                       # Time in different power states
system.mem_ctrl.dram.rank1.pwrStateTime::ACT_PDN            0                       # Time in different power states
system.mem_ctrl.power_state.pwrStateResidencyTicks::UNDEFINED 103261212000                       # Cumulative time (in ticks) in various power states
system.membus.trans_dist::ReadResp              10507                       # Transaction distribution
system.membus.trans_dist::WritebackDirty         9813                       # Transaction distribution
system.membus.trans_dist::CleanEvict             5127                       # Transaction distribution
system.membus.trans_dist::ReadExReq             20832                       # Transaction distribution
system.membus.trans_dist::ReadExResp            20832                       # Transaction distribution
system.membus.trans_dist::ReadSharedReq         10507                       # Transaction distribution
system.membus.pkt_count_system.l2cache.mem_side_port::system.mem_ctrl.port        77618                       # Packet count per connected requestor and responder (bytes)
system.membus.pkt_count_system.l2cache.mem_side_port::total        77618                       # Packet count per connected requestor and responder (bytes)
system.membus.pkt_count::total                  77618                       # Packet count per connected requestor and responder (bytes)
system.membus.pkt_size_system.l2cache.mem_side_port::system.mem_ctrl.port      2633728                       # Cumulative packet size per connected requestor and responder (bytes)
system.membus.pkt_size_system.l2cache.mem_side_port::total      2633728                       # Cumulative packet size per connected requestor and responder (bytes)
system.membus.pkt_size::total                 2633728                       # Cumulative packet size per connected requestor and responder (bytes)
system.membus.snoops                                0                       # Total snoops (count)
system.membus.snoopTraffic                          0                       # Total snoop traffic (bytes)
system.membus.snoop_fanout::samples             31339                       # Request fanout histogram
system.membus.snoop_fanout::mean                    0                       # Request fanout histogram
system.membus.snoop_fanout::stdev                   0                       # Request fanout histogram
system.membus.snoop_fanout::underflows              0      0.00%      0.00% # Request fanout histogram
system.membus.snoop_fanout::0                   31339    100.00%    100.00% # Request fanout histogram
system.membus.snoop_fanout::1                       0      0.00%    100.00% # Request fanout histogram
system.membus.snoop_fanout::overflows               0      0.00%    100.00% # Request fanout histogram
system.membus.snoop_fanout::min_value               0                       # Request fanout histogram
system.membus.snoop_fanout::max_value               0                       # Request fanout histogram
system.membus.snoop_fanout::total               31339                       # Request fanout histogram
system.membus.power_state.pwrStateResidencyTicks::UNDEFINED 103261212000                       # Cumulative time (in ticks) in various power states
system.membus.reqLayer2.occupancy            85531000                       # Layer occupancy (ticks)
system.membus.reqLayer2.utilization               0.1                       # Layer utilization (%)
system.membus.respLayer0.occupancy          165893750                       # Layer occupancy (ticks)
system.membus.respLayer0.utilization              0.2                       # Layer utilization (%)

---------- End Simulation Statistics   ----------
