
---------- Begin Simulation Statistics ----------
final_tick                               150563208000                       # Number of ticks from beginning of simulation (restored from checkpoints and never reset)
host_inst_rate                                 103994                       # Simulator instruction rate (inst/s)
host_mem_usage                                 673156                       # Number of bytes of host memory used
host_op_rate                                   190843                       # Simulator op (including micro ops) rate (op/s)
host_seconds                                  2857.67                       # Real time elapsed on the host
host_tick_rate                               52687463                       # Simulator tick rate (ticks/s)
sim_freq                                 1000000000000                       # Frequency of simulated ticks
sim_insts                                   297181572                       # Number of instructions simulated
sim_ops                                     545365690                       # Number of ops (including micro ops) simulated
sim_seconds                                  0.150563                       # Number of seconds simulated
sim_ticks                                150563208000                       # Number of ticks simulated
system.cpu.cc_regfile_reads                 257328076                       # number of cc regfile reads
system.cpu.cc_regfile_writes                186415317                       # number of cc regfile writes
system.cpu.committedInsts                   297181572                       # Number of Instructions Simulated
system.cpu.committedOps                     545365690                       # Number of Ops (including micro ops) Simulated
system.cpu.cpi                               0.506637                       # CPI: Cycles Per Instruction
system.cpu.cpi_total                         0.506637                       # CPI: Total CPI of All Threads
system.cpu.fp_regfile_reads                 225322071                       # number of floating regfile reads
system.cpu.fp_regfile_writes                181879029                       # number of floating regfile writes
system.cpu.idleCycles                          465764                       # Total number of cycles that the CPU has spent unscheduled due to idling
system.cpu.iew.branchMispredicts              1290994                       # Number of branch mispredicts detected at execute
system.cpu.iew.exec_branches                 50512106                       # Number of branches executed
system.cpu.iew.exec_nop                             0                       # number of nop insts executed
system.cpu.iew.exec_rate                     3.718645                       # Inst execution rate
system.cpu.iew.exec_refs                    119237456                       # number of memory reference insts executed
system.cpu.iew.exec_stores                    5387773                       # Number of stores executed
system.cpu.iew.exec_swp                             0                       # number of swp insts executed
system.cpu.iew.iewBlockCycles                 3556065                       # Number of cycles IEW is blocking
system.cpu.iew.iewDispLoadInsts             116075018                       # Number of dispatched load instructions
system.cpu.iew.iewDispNonSpecInsts                 24                       # Number of dispatched non-speculative instructions
system.cpu.iew.iewDispSquashedInsts            243412                       # Number of squashed instructions skipped by dispatch
system.cpu.iew.iewDispStoreInsts              5638697                       # Number of dispatched store instructions
system.cpu.iew.iewDispatchedInsts           573292229                       # Number of instructions dispatched to IQ
system.cpu.iew.iewExecLoadInsts             113849683                       # Number of load instructions executed
system.cpu.iew.iewExecSquashedInsts           2436229                       # Number of squashed instructions skipped in execute
system.cpu.iew.iewExecutedInsts             559891149                       # Number of executed instructions
system.cpu.iew.iewIQFullEvents                 939141                       # Number of times the IQ has become full, causing a stall
system.cpu.iew.iewIdleCycles                        0                       # Number of cycles IEW is idle
system.cpu.iew.iewLSQFullEvents               1225265                       # Number of times the LSQ has become full, causing a stall
system.cpu.iew.iewSquashCycles                 871445                       # Number of cycles IEW is squashing
system.cpu.iew.iewUnblockCycles               2184775                       # Number of cycles IEW is unblocking
system.cpu.iew.memOrderViolationEvents           3339                       # Number of memory order violations
system.cpu.iew.predictedNotTakenIncorrect        39595                       # Number of branches that were predicted not taken incorrectly
system.cpu.iew.predictedTakenIncorrect        1251399                       # Number of branches that were predicted taken incorrectly
system.cpu.iew.wb_consumers                 692529279                       # num instructions consuming a value
system.cpu.iew.wb_count                     557821929                       # cumulative count of insts written-back
system.cpu.iew.wb_fanout                     0.658587                       # average fanout of values written-back
system.cpu.iew.wb_producers                 456090811                       # num instructions producing a value
system.cpu.iew.wb_rate                       3.704902                       # insts written-back per cycle
system.cpu.iew.wb_sent                      558138423                       # cumulative count of insts sent to commit
system.cpu.int_regfile_reads                577101702                       # number of integer regfile reads
system.cpu.int_regfile_writes               319698560                       # number of integer regfile writes
system.cpu.ipc                               1.973799                       # IPC: Instructions Per Cycle
system.cpu.ipc_total                         1.973799                       # IPC: Total IPC of All Threads
system.cpu.iq.FU_type_0::No_OpClass            722737      0.13%      0.13% # Type of FU issued
system.cpu.iq.FU_type_0::IntAlu             335017430     59.58%     59.71% # Type of FU issued
system.cpu.iq.FU_type_0::IntMult                34905      0.01%     59.71% # Type of FU issued
system.cpu.iq.FU_type_0::IntDiv                   633      0.00%     59.71% # Type of FU issued
system.cpu.iq.FU_type_0::FloatAdd            35119333      6.25%     65.96% # Type of FU issued
system.cpu.iq.FU_type_0::FloatCmp                   0      0.00%     65.96% # Type of FU issued
system.cpu.iq.FU_type_0::FloatCvt                   0      0.00%     65.96% # Type of FU issued
system.cpu.iq.FU_type_0::FloatMult                  0      0.00%     65.96% # Type of FU issued
system.cpu.iq.FU_type_0::FloatMultAcc               0      0.00%     65.96% # Type of FU issued
system.cpu.iq.FU_type_0::FloatDiv                   0      0.00%     65.96% # Type of FU issued
system.cpu.iq.FU_type_0::FloatMisc                  0      0.00%     65.96% # Type of FU issued
system.cpu.iq.FU_type_0::FloatSqrt                  0      0.00%     65.96% # Type of FU issued
system.cpu.iq.FU_type_0::SimdAdd                79714      0.01%     65.97% # Type of FU issued
system.cpu.iq.FU_type_0::SimdAddAcc                 0      0.00%     65.97% # Type of FU issued
system.cpu.iq.FU_type_0::SimdAlu                75148      0.01%     65.98% # Type of FU issued
system.cpu.iq.FU_type_0::SimdCmp                   24      0.00%     65.98% # Type of FU issued
system.cpu.iq.FU_type_0::SimdCvt                 1183      0.00%     65.98% # Type of FU issued
system.cpu.iq.FU_type_0::SimdMisc              135701      0.02%     66.01% # Type of FU issued
system.cpu.iq.FU_type_0::SimdMult                   0      0.00%     66.01% # Type of FU issued
system.cpu.iq.FU_type_0::SimdMultAcc                0      0.00%     66.01% # Type of FU issued
system.cpu.iq.FU_type_0::SimdShift                  0      0.00%     66.01% # Type of FU issued
system.cpu.iq.FU_type_0::SimdShiftAcc               0      0.00%     66.01% # Type of FU issued
system.cpu.iq.FU_type_0::SimdDiv                    0      0.00%     66.01% # Type of FU issued
system.cpu.iq.FU_type_0::SimdSqrt                   0      0.00%     66.01% # Type of FU issued
system.cpu.iq.FU_type_0::SimdFloatAdd        35515013      6.32%     72.32% # Type of FU issued
system.cpu.iq.FU_type_0::SimdFloatAlu               0      0.00%     72.32% # Type of FU issued
system.cpu.iq.FU_type_0::SimdFloatCmp               0      0.00%     72.32% # Type of FU issued
system.cpu.iq.FU_type_0::SimdFloatCvt          111159      0.02%     72.34% # Type of FU issued
system.cpu.iq.FU_type_0::SimdFloatDiv             836      0.00%     72.34% # Type of FU issued
system.cpu.iq.FU_type_0::SimdFloatMisc              0      0.00%     72.34% # Type of FU issued
system.cpu.iq.FU_type_0::SimdFloatMult       35568987      6.33%     78.67% # Type of FU issued
system.cpu.iq.FU_type_0::SimdFloatMultAcc            0      0.00%     78.67% # Type of FU issued
system.cpu.iq.FU_type_0::SimdFloatSqrt             32      0.00%     78.67% # Type of FU issued
system.cpu.iq.FU_type_0::SimdReduceAdd              0      0.00%     78.67% # Type of FU issued
system.cpu.iq.FU_type_0::SimdReduceAlu              0      0.00%     78.67% # Type of FU issued
system.cpu.iq.FU_type_0::SimdReduceCmp              0      0.00%     78.67% # Type of FU issued
system.cpu.iq.FU_type_0::SimdFloatReduceAdd            0      0.00%     78.67% # Type of FU issued
system.cpu.iq.FU_type_0::SimdFloatReduceCmp            0      0.00%     78.67% # Type of FU issued
system.cpu.iq.FU_type_0::SimdAes                    0      0.00%     78.67% # Type of FU issued
system.cpu.iq.FU_type_0::SimdAesMix                 0      0.00%     78.67% # Type of FU issued
system.cpu.iq.FU_type_0::SimdSha1Hash               0      0.00%     78.67% # Type of FU issued
system.cpu.iq.FU_type_0::SimdSha1Hash2              0      0.00%     78.67% # Type of FU issued
system.cpu.iq.FU_type_0::SimdSha256Hash             0      0.00%     78.67% # Type of FU issued
system.cpu.iq.FU_type_0::SimdSha256Hash2            0      0.00%     78.67% # Type of FU issued
system.cpu.iq.FU_type_0::SimdShaSigma2              0      0.00%     78.67% # Type of FU issued
system.cpu.iq.FU_type_0::SimdShaSigma3              0      0.00%     78.67% # Type of FU issued
system.cpu.iq.FU_type_0::SimdPredAlu                0      0.00%     78.67% # Type of FU issued
system.cpu.iq.FU_type_0::MemRead             41431935      7.37%     86.04% # Type of FU issued
system.cpu.iq.FU_type_0::MemWrite             1451461      0.26%     86.30% # Type of FU issued
system.cpu.iq.FU_type_0::FloatMemRead        73106135     13.00%     99.30% # Type of FU issued
system.cpu.iq.FU_type_0::FloatMemWrite        3955012      0.70%    100.00% # Type of FU issued
system.cpu.iq.FU_type_0::IprAccess                  0      0.00%    100.00% # Type of FU issued
system.cpu.iq.FU_type_0::InstPrefetch               0      0.00%    100.00% # Type of FU issued
system.cpu.iq.FU_type_0::total              562327378                       # Type of FU issued
system.cpu.iq.fp_alu_accesses               193391378                       # Number of floating point alu accesses
system.cpu.iq.fp_inst_queue_reads           380740733                       # Number of floating instruction queue reads
system.cpu.iq.fp_inst_queue_wakeup_accesses    185783034                       # Number of floating instruction queue wakeup accesses
system.cpu.iq.fp_inst_queue_writes          197248985                       # Number of floating instruction queue writes
system.cpu.iq.fu_busy_cnt                    14323856                       # FU busy when requested
system.cpu.iq.fu_busy_rate                   0.025472                       # FU busy rate (busy events/executed inst)
system.cpu.iq.fu_full::No_OpClass                   0      0.00%      0.00% # attempts to use FU when none available
system.cpu.iq.fu_full::IntAlu                 8153427     56.92%     56.92% # attempts to use FU when none available
system.cpu.iq.fu_full::IntMult                      0      0.00%     56.92% # attempts to use FU when none available
system.cpu.iq.fu_full::IntDiv                       0      0.00%     56.92% # attempts to use FU when none available
system.cpu.iq.fu_full::FloatAdd                     0      0.00%     56.92% # attempts to use FU when none available
system.cpu.iq.fu_full::FloatCmp                     0      0.00%     56.92% # attempts to use FU when none available
system.cpu.iq.fu_full::FloatCvt                     0      0.00%     56.92% # attempts to use FU when none available
system.cpu.iq.fu_full::FloatMult                    0      0.00%     56.92% # attempts to use FU when none available
system.cpu.iq.fu_full::FloatMultAcc                 0      0.00%     56.92% # attempts to use FU when none available
system.cpu.iq.fu_full::FloatDiv                     0      0.00%     56.92% # attempts to use FU when none available
system.cpu.iq.fu_full::FloatMisc                    0      0.00%     56.92% # attempts to use FU when none available
system.cpu.iq.fu_full::FloatSqrt                    0      0.00%     56.92% # attempts to use FU when none available
system.cpu.iq.fu_full::SimdAdd                      3      0.00%     56.92% # attempts to use FU when none available
system.cpu.iq.fu_full::SimdAddAcc                   0      0.00%     56.92% # attempts to use FU when none available
system.cpu.iq.fu_full::SimdAlu                    127      0.00%     56.92% # attempts to use FU when none available
system.cpu.iq.fu_full::SimdCmp                      0      0.00%     56.92% # attempts to use FU when none available
system.cpu.iq.fu_full::SimdCvt                      2      0.00%     56.92% # attempts to use FU when none available
system.cpu.iq.fu_full::SimdMisc                    66      0.00%     56.92% # attempts to use FU when none available
system.cpu.iq.fu_full::SimdMult                     0      0.00%     56.92% # attempts to use FU when none available
system.cpu.iq.fu_full::SimdMultAcc                  0      0.00%     56.92% # attempts to use FU when none available
system.cpu.iq.fu_full::SimdShift                    0      0.00%     56.92% # attempts to use FU when none available
system.cpu.iq.fu_full::SimdShiftAcc                 0      0.00%     56.92% # attempts to use FU when none available
system.cpu.iq.fu_full::SimdDiv                      0      0.00%     56.92% # attempts to use FU when none available
system.cpu.iq.fu_full::SimdSqrt                     0      0.00%     56.92% # attempts to use FU when none available
system.cpu.iq.fu_full::SimdFloatAdd             14789      0.10%     57.03% # attempts to use FU when none available
system.cpu.iq.fu_full::SimdFloatAlu                 0      0.00%     57.03% # attempts to use FU when none available
system.cpu.iq.fu_full::SimdFloatCmp                 0      0.00%     57.03% # attempts to use FU when none available
system.cpu.iq.fu_full::SimdFloatCvt                 0      0.00%     57.03% # attempts to use FU when none available
system.cpu.iq.fu_full::SimdFloatDiv                 0      0.00%     57.03% # attempts to use FU when none available
system.cpu.iq.fu_full::SimdFloatMisc                0      0.00%     57.03% # attempts to use FU when none available
system.cpu.iq.fu_full::SimdFloatMult          2535370     17.70%     74.73% # attempts to use FU when none available
system.cpu.iq.fu_full::SimdFloatMultAcc             0      0.00%     74.73% # attempts to use FU when none available
system.cpu.iq.fu_full::SimdFloatSqrt                0      0.00%     74.73% # attempts to use FU when none available
system.cpu.iq.fu_full::SimdReduceAdd                0      0.00%     74.73% # attempts to use FU when none available
system.cpu.iq.fu_full::SimdReduceAlu                0      0.00%     74.73% # attempts to use FU when none available
system.cpu.iq.fu_full::SimdReduceCmp                0      0.00%     74.73% # attempts to use FU when none available
system.cpu.iq.fu_full::SimdFloatReduceAdd            0      0.00%     74.73% # attempts to use FU when none available
system.cpu.iq.fu_full::SimdFloatReduceCmp            0      0.00%     74.73% # attempts to use FU when none available
system.cpu.iq.fu_full::SimdAes                      0      0.00%     74.73% # attempts to use FU when none available
system.cpu.iq.fu_full::SimdAesMix                   0      0.00%     74.73% # attempts to use FU when none available
system.cpu.iq.fu_full::SimdSha1Hash                 0      0.00%     74.73% # attempts to use FU when none available
system.cpu.iq.fu_full::SimdSha1Hash2                0      0.00%     74.73% # attempts to use FU when none available
system.cpu.iq.fu_full::SimdSha256Hash               0      0.00%     74.73% # attempts to use FU when none available
system.cpu.iq.fu_full::SimdSha256Hash2              0      0.00%     74.73% # attempts to use FU when none available
system.cpu.iq.fu_full::SimdShaSigma2                0      0.00%     74.73% # attempts to use FU when none available
system.cpu.iq.fu_full::SimdShaSigma3                0      0.00%     74.73% # attempts to use FU when none available
system.cpu.iq.fu_full::SimdPredAlu                  0      0.00%     74.73% # attempts to use FU when none available
system.cpu.iq.fu_full::MemRead                 185108      1.29%     76.02% # attempts to use FU when none available
system.cpu.iq.fu_full::MemWrite                  1991      0.01%     76.03% # attempts to use FU when none available
system.cpu.iq.fu_full::FloatMemRead           3381647     23.61%     99.64% # attempts to use FU when none available
system.cpu.iq.fu_full::FloatMemWrite            51326      0.36%    100.00% # attempts to use FU when none available
system.cpu.iq.fu_full::IprAccess                    0      0.00%    100.00% # attempts to use FU when none available
system.cpu.iq.fu_full::InstPrefetch                 0      0.00%    100.00% # attempts to use FU when none available
system.cpu.iq.int_alu_accesses              382537119                       # Number of integer alu accesses
system.cpu.iq.int_inst_queue_reads          909290293                       # Number of integer instruction queue reads
system.cpu.iq.int_inst_queue_wakeup_accesses    372038895                       # Number of integer instruction queue wakeup accesses
system.cpu.iq.int_inst_queue_writes         403973102                       # Number of integer instruction queue writes
system.cpu.iq.iqInstsAdded                  573292163                       # Number of instructions added to the IQ (excludes non-spec)
system.cpu.iq.iqInstsIssued                 562327378                       # Number of instructions issued
system.cpu.iq.iqNonSpecInstsAdded                  66                       # Number of non-speculative instructions added to the IQ
system.cpu.iq.iqSquashedInstsExamined        27926533                       # Number of squashed instructions iterated over during squash; mainly for profiling
system.cpu.iq.iqSquashedInstsIssued            954969                       # Number of squashed instructions issued
system.cpu.iq.iqSquashedNonSpecRemoved             36                       # Number of squashed non-spec instructions that were removed
system.cpu.iq.iqSquashedOperandsExamined     45010402                       # Number of squashed operands that are examined and possibly removed from graph
system.cpu.iq.issued_per_cycle::samples     150097445                       # Number of insts issued each cycle
system.cpu.iq.issued_per_cycle::mean         3.746415                       # Number of insts issued each cycle
system.cpu.iq.issued_per_cycle::stdev        2.582296                       # Number of insts issued each cycle
system.cpu.iq.issued_per_cycle::underflows            0      0.00%      0.00% # Number of insts issued each cycle
system.cpu.iq.issued_per_cycle::0            24281371     16.18%     16.18% # Number of insts issued each cycle
system.cpu.iq.issued_per_cycle::1            15733040     10.48%     26.66% # Number of insts issued each cycle
system.cpu.iq.issued_per_cycle::2            14908695      9.93%     36.59% # Number of insts issued each cycle
system.cpu.iq.issued_per_cycle::3            12116881      8.07%     44.66% # Number of insts issued each cycle
system.cpu.iq.issued_per_cycle::4            18071797     12.04%     56.70% # Number of insts issued each cycle
system.cpu.iq.issued_per_cycle::5            18453507     12.29%     69.00% # Number of insts issued each cycle
system.cpu.iq.issued_per_cycle::6            20210284     13.46%     82.46% # Number of insts issued each cycle
system.cpu.iq.issued_per_cycle::7            15965082     10.64%     93.10% # Number of insts issued each cycle
system.cpu.iq.issued_per_cycle::8            10356788      6.90%    100.00% # Number of insts issued each cycle
system.cpu.iq.issued_per_cycle::overflows            0      0.00%    100.00% # Number of insts issued each cycle
system.cpu.iq.issued_per_cycle::min_value            0                       # Number of insts issued each cycle
system.cpu.iq.issued_per_cycle::max_value            8                       # Number of insts issued each cycle
system.cpu.iq.issued_per_cycle::total       150097445                       # Number of insts issued each cycle
system.cpu.iq.rate                           3.734826                       # Inst issue rate
system.cpu.iq.vec_alu_accesses                      0                       # Number of vector alu accesses
system.cpu.iq.vec_inst_queue_reads                  0                       # Number of vector instruction queue reads
system.cpu.iq.vec_inst_queue_wakeup_accesses            0                       # Number of vector instruction queue wakeup accesses
system.cpu.iq.vec_inst_queue_writes                 0                       # Number of vector instruction queue writes
system.cpu.memDep0.conflictingLoads           1399096                       # Number of conflicting loads.
system.cpu.memDep0.conflictingStores          1155473                       # Number of conflicting stores.
system.cpu.memDep0.insertedLoads            116075018                       # Number of loads inserted to the mem dependence unit.
system.cpu.memDep0.insertedStores             5638697                       # Number of stores inserted to the mem dependence unit.
system.cpu.misc_regfile_reads               221660507                       # number of misc regfile reads
system.cpu.numCycles                        150563209                       # number of cpu cycles simulated
system.cpu.numWorkItemsCompleted                    0                       # number of work items this cpu completed
system.cpu.numWorkItemsStarted                      0                       # number of work items this cpu started
system.cpu.timesIdled                           13280                       # Number of times that the entire CPU went into an idle state and unscheduled itself
system.cpu.workload.numSyscalls                    87                       # Number of system calls
system.l2bus.snoop_filter.hit_multi_requests           16                       # Number of requests hitting in the snoop filter with multiple (>1) holders of the requested data.
system.l2bus.snoop_filter.hit_multi_snoops            0                       # Number of snoops hitting in the snoop filter with multiple (>1) holders of the requested data.
system.l2bus.snoop_filter.hit_single_requests      6629590                       # Number of requests hitting in the snoop filter with a single holder of the requested data.
system.l2bus.snoop_filter.hit_single_snoops        16066                       # Number of snoops hitting in the snoop filter with a single holder of the requested data.
system.l2bus.snoop_filter.tot_requests       13260466                       # Total number of requests made to the snoop filter.
system.l2bus.snoop_filter.tot_snoops            16066                       # Total number of snoops made to the snoop filter.
system.membus.snoop_filter.hit_multi_requests            0                       # Number of requests hitting in the snoop filter with multiple (>1) holders of the requested data.
system.membus.snoop_filter.hit_multi_snoops            0                       # Number of snoops hitting in the snoop filter with multiple (>1) holders of the requested data.
system.membus.snoop_filter.hit_single_requests       253233                       # Number of requests hitting in the snoop filter with a single holder of the requested data.
system.membus.snoop_filter.hit_single_snoops            0                       # Number of snoops hitting in the snoop filter with a single holder of the requested data.
system.membus.snoop_filter.tot_requests        522877                       # Total number of requests made to the snoop filter.
system.membus.snoop_filter.tot_snoops               0                       # Total number of snoops made to the snoop filter.
system.clk_domain.clock                          1000                       # Clock period in ticks
system.clk_domain.voltage_domain.voltage            1                       # Voltage in Volts
system.cpu.branchPred.lookups                55839595                       # Number of BP lookups
system.cpu.branchPred.condPredicted          55570280                       # Number of conditional branches predicted
system.cpu.branchPred.condIncorrect            869822                       # Number of conditional branches incorrect
system.cpu.branchPred.BTBLookups             47410724                       # Number of BTB lookups
system.cpu.branchPred.BTBHits                47405043                       # Number of BTB hits
system.cpu.branchPred.BTBHitPct             99.988017                       # BTB Hit Percentage
system.cpu.branchPred.RASUsed                   55177                       # Number of times the RAS was used to get a target.
system.cpu.branchPred.RASIncorrect                 15                       # Number of incorrect RAS predictions.
system.cpu.branchPred.indirectLookups           10005                       # Number of indirect predictor lookups.
system.cpu.branchPred.indirectHits               6199                       # Number of indirect target hits.
system.cpu.branchPred.indirectMisses             3806                       # Number of indirect misses.
system.cpu.branchPred.indirectMispredicted          682                       # Number of mispredicted indirect branches.
system.cpu.commit.commitSquashedInsts        27924555                       # The number of squashed insts skipped by commit
system.cpu.commit.commitNonSpecStalls              30                       # The number of times commit has been forced to stall to communicate backwards
system.cpu.commit.branchMispredicts            868181                       # The number of times a branch was mispredicted
system.cpu.commit.numCommittedDist::samples    146220684                       # Number of insts commited each cycle
system.cpu.commit.numCommittedDist::mean     3.729744                       # Number of insts commited each cycle
system.cpu.commit.numCommittedDist::stdev     3.672648                       # Number of insts commited each cycle
system.cpu.commit.numCommittedDist::underflows            0      0.00%      0.00% # Number of insts commited each cycle
system.cpu.commit.numCommittedDist::0        59988543     41.03%     41.03% # Number of insts commited each cycle
system.cpu.commit.numCommittedDist::1         6169866      4.22%     45.25% # Number of insts commited each cycle
system.cpu.commit.numCommittedDist::2         5756747      3.94%     49.18% # Number of insts commited each cycle
system.cpu.commit.numCommittedDist::3         8953601      6.12%     55.31% # Number of insts commited each cycle
system.cpu.commit.numCommittedDist::4         1493844      1.02%     56.33% # Number of insts commited each cycle
system.cpu.commit.numCommittedDist::5         3755615      2.57%     58.90% # Number of insts commited each cycle
system.cpu.commit.numCommittedDist::6         1747452      1.20%     60.09% # Number of insts commited each cycle
system.cpu.commit.numCommittedDist::7         1256764      0.86%     60.95% # Number of insts commited each cycle
system.cpu.commit.numCommittedDist::8        57098252     39.05%    100.00% # Number of insts commited each cycle
system.cpu.commit.numCommittedDist::overflows            0      0.00%    100.00% # Number of insts commited each cycle
system.cpu.commit.numCommittedDist::min_value            0                       # Number of insts commited each cycle
system.cpu.commit.numCommittedDist::max_value            8                       # Number of insts commited each cycle
system.cpu.commit.numCommittedDist::total    146220684                       # Number of insts commited each cycle
system.cpu.commit.instsCommitted            297181572                       # Number of instructions committed
system.cpu.commit.opsCommitted              545365690                       # Number of ops (including micro ops) committed
system.cpu.commit.memRefs                   116747303                       # Number of memory references committed
system.cpu.commit.loads                     111390584                       # Number of loads committed
system.cpu.commit.amos                              0                       # Number of atomic instructions committed
system.cpu.commit.membars                          20                       # Number of memory barriers committed
system.cpu.commit.branches                   49473388                       # Number of branches committed
system.cpu.commit.vector                            0                       # Number of committed Vector instructions.
system.cpu.commit.floating                  184508629                       # Number of committed floating point instructions.
system.cpu.commit.integer                   435907731                       # Number of committed integer instructions.
system.cpu.commit.functionCalls                 40805                       # Number of function calls committed.
system.cpu.commit.committedInstType_0::No_OpClass       710639      0.13%      0.13% # Class of committed instruction
system.cpu.commit.committedInstType_0::IntAlu    322695108     59.17%     59.30% # Class of committed instruction
system.cpu.commit.committedInstType_0::IntMult        30107      0.01%     59.31% # Class of committed instruction
system.cpu.commit.committedInstType_0::IntDiv          630      0.00%     59.31% # Class of committed instruction
system.cpu.commit.committedInstType_0::FloatAdd     33737834      6.19%     65.49% # Class of committed instruction
system.cpu.commit.committedInstType_0::FloatCmp            0      0.00%     65.49% # Class of committed instruction
system.cpu.commit.committedInstType_0::FloatCvt            0      0.00%     65.49% # Class of committed instruction
system.cpu.commit.committedInstType_0::FloatMult            0      0.00%     65.49% # Class of committed instruction
system.cpu.commit.committedInstType_0::FloatMultAcc            0      0.00%     65.49% # Class of committed instruction
system.cpu.commit.committedInstType_0::FloatDiv            0      0.00%     65.49% # Class of committed instruction
system.cpu.commit.committedInstType_0::FloatMisc            0      0.00%     65.49% # Class of committed instruction
system.cpu.commit.committedInstType_0::FloatSqrt            0      0.00%     65.49% # Class of committed instruction
system.cpu.commit.committedInstType_0::SimdAdd        76762      0.01%     65.51% # Class of committed instruction
system.cpu.commit.committedInstType_0::SimdAddAcc            0      0.00%     65.51% # Class of committed instruction
system.cpu.commit.committedInstType_0::SimdAlu        60252      0.01%     65.52% # Class of committed instruction
system.cpu.commit.committedInstType_0::SimdCmp           24      0.00%     65.52% # Class of committed instruction
system.cpu.commit.committedInstType_0::SimdCvt         1170      0.00%     65.52% # Class of committed instruction
system.cpu.commit.committedInstType_0::SimdMisc       125019      0.02%     65.54% # Class of committed instruction
system.cpu.commit.committedInstType_0::SimdMult            0      0.00%     65.54% # Class of committed instruction
system.cpu.commit.committedInstType_0::SimdMultAcc            0      0.00%     65.54% # Class of committed instruction
system.cpu.commit.committedInstType_0::SimdShift            0      0.00%     65.54% # Class of committed instruction
system.cpu.commit.committedInstType_0::SimdShiftAcc            0      0.00%     65.54% # Class of committed instruction
system.cpu.commit.committedInstType_0::SimdDiv            0      0.00%     65.54% # Class of committed instruction
system.cpu.commit.committedInstType_0::SimdSqrt            0      0.00%     65.54% # Class of committed instruction
system.cpu.commit.committedInstType_0::SimdFloatAdd     35512541      6.51%     72.05% # Class of committed instruction
system.cpu.commit.committedInstType_0::SimdFloatAlu            0      0.00%     72.05% # Class of committed instruction
system.cpu.commit.committedInstType_0::SimdFloatCmp            0      0.00%     72.05% # Class of committed instruction
system.cpu.commit.committedInstType_0::SimdFloatCvt       101637      0.02%     72.07% # Class of committed instruction
system.cpu.commit.committedInstType_0::SimdFloatDiv          835      0.00%     72.07% # Class of committed instruction
system.cpu.commit.committedInstType_0::SimdFloatMisc            0      0.00%     72.07% # Class of committed instruction
system.cpu.commit.committedInstType_0::SimdFloatMult     35565797      6.52%     78.59% # Class of committed instruction
system.cpu.commit.committedInstType_0::SimdFloatMultAcc            0      0.00%     78.59% # Class of committed instruction
system.cpu.commit.committedInstType_0::SimdFloatSqrt           32      0.00%     78.59% # Class of committed instruction
system.cpu.commit.committedInstType_0::SimdReduceAdd            0      0.00%     78.59% # Class of committed instruction
system.cpu.commit.committedInstType_0::SimdReduceAlu            0      0.00%     78.59% # Class of committed instruction
system.cpu.commit.committedInstType_0::SimdReduceCmp            0      0.00%     78.59% # Class of committed instruction
system.cpu.commit.committedInstType_0::SimdFloatReduceAdd            0      0.00%     78.59% # Class of committed instruction
system.cpu.commit.committedInstType_0::SimdFloatReduceCmp            0      0.00%     78.59% # Class of committed instruction
system.cpu.commit.committedInstType_0::SimdAes            0      0.00%     78.59% # Class of committed instruction
system.cpu.commit.committedInstType_0::SimdAesMix            0      0.00%     78.59% # Class of committed instruction
system.cpu.commit.committedInstType_0::SimdSha1Hash            0      0.00%     78.59% # Class of committed instruction
system.cpu.commit.committedInstType_0::SimdSha1Hash2            0      0.00%     78.59% # Class of committed instruction
system.cpu.commit.committedInstType_0::SimdSha256Hash            0      0.00%     78.59% # Class of committed instruction
system.cpu.commit.committedInstType_0::SimdSha256Hash2            0      0.00%     78.59% # Class of committed instruction
system.cpu.commit.committedInstType_0::SimdShaSigma2            0      0.00%     78.59% # Class of committed instruction
system.cpu.commit.committedInstType_0::SimdShaSigma3            0      0.00%     78.59% # Class of committed instruction
system.cpu.commit.committedInstType_0::SimdPredAlu            0      0.00%     78.59% # Class of committed instruction
system.cpu.commit.committedInstType_0::MemRead     39670401      7.27%     85.87% # Class of committed instruction
system.cpu.commit.committedInstType_0::MemWrite      1421589      0.26%     86.13% # Class of committed instruction
system.cpu.commit.committedInstType_0::FloatMemRead     71720183     13.15%     99.28% # Class of committed instruction
system.cpu.commit.committedInstType_0::FloatMemWrite      3935130      0.72%    100.00% # Class of committed instruction
system.cpu.commit.committedInstType_0::IprAccess            0      0.00%    100.00% # Class of committed instruction
system.cpu.commit.committedInstType_0::InstPrefetch            0      0.00%    100.00% # Class of committed instruction
system.cpu.commit.committedInstType_0::total    545365690                       # Class of committed instruction
system.cpu.commit.commitEligibleSamples      57098252                       # number cycles where commit BW limit reached
system.cpu.dcache.demand_hits::.cpu.data     73312362                       # number of demand (read+write) hits
system.cpu.dcache.demand_hits::total         73312362                       # number of demand (read+write) hits
system.cpu.dcache.overall_hits::.cpu.data     73312362                       # number of overall hits
system.cpu.dcache.overall_hits::total        73312362                       # number of overall hits
system.cpu.dcache.demand_misses::.cpu.data     45487083                       # number of demand (read+write) misses
system.cpu.dcache.demand_misses::total       45487083                       # number of demand (read+write) misses
system.cpu.dcache.overall_misses::.cpu.data     45487083                       # number of overall misses
system.cpu.dcache.overall_misses::total      45487083                       # number of overall misses
system.cpu.dcache.demand_miss_latency::.cpu.data 1037997529905                       # number of demand (read+write) miss cycles
system.cpu.dcache.demand_miss_latency::total 1037997529905                       # number of demand (read+write) miss cycles
system.cpu.dcache.overall_miss_latency::.cpu.data 1037997529905                       # number of overall miss cycles
system.cpu.dcache.overall_miss_latency::total 1037997529905                       # number of overall miss cycles
system.cpu.dcache.demand_accesses::.cpu.data    118799445                       # number of demand (read+write) accesses
system.cpu.dcache.demand_accesses::total    118799445                       # number of demand (read+write) accesses
system.cpu.dcache.overall_accesses::.cpu.data    118799445                       # number of overall (read+write) accesses
system.cpu.dcache.overall_accesses::total    118799445                       # number of overall (read+write) accesses
system.cpu.dcache.demand_miss_rate::.cpu.data     0.382890                       # miss rate for demand accesses
system.cpu.dcache.demand_miss_rate::total     0.382890                       # miss rate for demand accesses
system.cpu.dcache.overall_miss_rate::.cpu.data     0.382890                       # miss rate for overall accesses
system.cpu.dcache.overall_miss_rate::total     0.382890                       # miss rate for overall accesses
system.cpu.dcache.demand_avg_miss_latency::.cpu.data 22819.610787                       # average overall miss latency
system.cpu.dcache.demand_avg_miss_latency::total 22819.610787                       # average overall miss latency
system.cpu.dcache.overall_avg_miss_latency::.cpu.data 22819.610787                       # average overall miss latency
system.cpu.dcache.overall_avg_miss_latency::total 22819.610787                       # average overall miss latency
system.cpu.dcache.blocked_cycles::no_mshrs       490748                       # number of cycles access was blocked
system.cpu.dcache.blocked_cycles::no_targets          672                       # number of cycles access was blocked
system.cpu.dcache.blocked::no_mshrs             70797                       # number of cycles access was blocked
system.cpu.dcache.blocked::no_targets              10                       # number of cycles access was blocked
system.cpu.dcache.avg_blocked_cycles::no_mshrs     6.931763                       # average number of cycles each access was blocked
system.cpu.dcache.avg_blocked_cycles::no_targets    67.200000                       # average number of cycles each access was blocked
system.cpu.dcache.writebacks::.writebacks      2774065                       # number of writebacks
system.cpu.dcache.writebacks::total           2774065                       # number of writebacks
system.cpu.dcache.demand_mshr_hits::.cpu.data     38876724                       # number of demand (read+write) MSHR hits
system.cpu.dcache.demand_mshr_hits::total     38876724                       # number of demand (read+write) MSHR hits
system.cpu.dcache.overall_mshr_hits::.cpu.data     38876724                       # number of overall MSHR hits
system.cpu.dcache.overall_mshr_hits::total     38876724                       # number of overall MSHR hits
system.cpu.dcache.demand_mshr_misses::.cpu.data      6610359                       # number of demand (read+write) MSHR misses
system.cpu.dcache.demand_mshr_misses::total      6610359                       # number of demand (read+write) MSHR misses
system.cpu.dcache.overall_mshr_misses::.cpu.data      6610359                       # number of overall MSHR misses
system.cpu.dcache.overall_mshr_misses::total      6610359                       # number of overall MSHR misses
system.cpu.dcache.demand_mshr_miss_latency::.cpu.data 184328335906                       # number of demand (read+write) MSHR miss cycles
system.cpu.dcache.demand_mshr_miss_latency::total 184328335906                       # number of demand (read+write) MSHR miss cycles
system.cpu.dcache.overall_mshr_miss_latency::.cpu.data 184328335906                       # number of overall MSHR miss cycles
system.cpu.dcache.overall_mshr_miss_latency::total 184328335906                       # number of overall MSHR miss cycles
system.cpu.dcache.demand_mshr_miss_rate::.cpu.data     0.055643                       # mshr miss rate for demand accesses
system.cpu.dcache.demand_mshr_miss_rate::total     0.055643                       # mshr miss rate for demand accesses
system.cpu.dcache.overall_mshr_miss_rate::.cpu.data     0.055643                       # mshr miss rate for overall accesses
system.cpu.dcache.overall_mshr_miss_rate::total     0.055643                       # mshr miss rate for overall accesses
system.cpu.dcache.demand_avg_mshr_miss_latency::.cpu.data 27884.769330                       # average overall mshr miss latency
system.cpu.dcache.demand_avg_mshr_miss_latency::total 27884.769330                       # average overall mshr miss latency
system.cpu.dcache.overall_avg_mshr_miss_latency::.cpu.data 27884.769330                       # average overall mshr miss latency
system.cpu.dcache.overall_avg_mshr_miss_latency::total 27884.769330                       # average overall mshr miss latency
system.cpu.dcache.replacements                6609333                       # number of replacements
system.cpu.dcache.ReadReq_hits::.cpu.data     68066665                       # number of ReadReq hits
system.cpu.dcache.ReadReq_hits::total        68066665                       # number of ReadReq hits
system.cpu.dcache.ReadReq_misses::.cpu.data     45369163                       # number of ReadReq misses
system.cpu.dcache.ReadReq_misses::total      45369163                       # number of ReadReq misses
system.cpu.dcache.ReadReq_miss_latency::.cpu.data 1032637413000                       # number of ReadReq miss cycles
system.cpu.dcache.ReadReq_miss_latency::total 1032637413000                       # number of ReadReq miss cycles
system.cpu.dcache.ReadReq_accesses::.cpu.data    113435828                       # number of ReadReq accesses(hits+misses)
system.cpu.dcache.ReadReq_accesses::total    113435828                       # number of ReadReq accesses(hits+misses)
system.cpu.dcache.ReadReq_miss_rate::.cpu.data     0.399954                       # miss rate for ReadReq accesses
system.cpu.dcache.ReadReq_miss_rate::total     0.399954                       # miss rate for ReadReq accesses
system.cpu.dcache.ReadReq_avg_miss_latency::.cpu.data 22760.777249                       # average ReadReq miss latency
system.cpu.dcache.ReadReq_avg_miss_latency::total 22760.777249                       # average ReadReq miss latency
system.cpu.dcache.ReadReq_mshr_hits::.cpu.data     38876644                       # number of ReadReq MSHR hits
system.cpu.dcache.ReadReq_mshr_hits::total     38876644                       # number of ReadReq MSHR hits
system.cpu.dcache.ReadReq_mshr_misses::.cpu.data      6492519                       # number of ReadReq MSHR misses
system.cpu.dcache.ReadReq_mshr_misses::total      6492519                       # number of ReadReq MSHR misses
system.cpu.dcache.ReadReq_mshr_miss_latency::.cpu.data 179210091000                       # number of ReadReq MSHR miss cycles
system.cpu.dcache.ReadReq_mshr_miss_latency::total 179210091000                       # number of ReadReq MSHR miss cycles
system.cpu.dcache.ReadReq_mshr_miss_rate::.cpu.data     0.057235                       # mshr miss rate for ReadReq accesses
system.cpu.dcache.ReadReq_mshr_miss_rate::total     0.057235                       # mshr miss rate for ReadReq accesses
system.cpu.dcache.ReadReq_avg_mshr_miss_latency::.cpu.data 27602.551644                       # average ReadReq mshr miss latency
system.cpu.dcache.ReadReq_avg_mshr_miss_latency::total 27602.551644                       # average ReadReq mshr miss latency
system.cpu.dcache.WriteReq_hits::.cpu.data      5245697                       # number of WriteReq hits
system.cpu.dcache.WriteReq_hits::total        5245697                       # number of WriteReq hits
system.cpu.dcache.WriteReq_misses::.cpu.data       117920                       # number of WriteReq misses
system.cpu.dcache.WriteReq_misses::total       117920                       # number of WriteReq misses
system.cpu.dcache.WriteReq_miss_latency::.cpu.data   5360116905                       # number of WriteReq miss cycles
system.cpu.dcache.WriteReq_miss_latency::total   5360116905                       # number of WriteReq miss cycles
system.cpu.dcache.WriteReq_accesses::.cpu.data      5363617                       # number of WriteReq accesses(hits+misses)
system.cpu.dcache.WriteReq_accesses::total      5363617                       # number of WriteReq accesses(hits+misses)
system.cpu.dcache.WriteReq_miss_rate::.cpu.data     0.021985                       # miss rate for WriteReq accesses
system.cpu.dcache.WriteReq_miss_rate::total     0.021985                       # miss rate for WriteReq accesses
system.cpu.dcache.WriteReq_avg_miss_latency::.cpu.data 45455.536847                       # average WriteReq miss latency
system.cpu.dcache.WriteReq_avg_miss_latency::total 45455.536847                       # average WriteReq miss latency
system.cpu.dcache.WriteReq_mshr_hits::.cpu.data           80                       # number of WriteReq MSHR hits
system.cpu.dcache.WriteReq_mshr_hits::total           80                       # number of WriteReq MSHR hits
system.cpu.dcache.WriteReq_mshr_misses::.cpu.data       117840                       # number of WriteReq MSHR misses
system.cpu.dcache.WriteReq_mshr_misses::total       117840                       # number of WriteReq MSHR misses
system.cpu.dcache.WriteReq_mshr_miss_latency::.cpu.data   5118244906                       # number of WriteReq MSHR miss cycles
system.cpu.dcache.WriteReq_mshr_miss_latency::total   5118244906                       # number of WriteReq MSHR miss cycles
system.cpu.dcache.WriteReq_mshr_miss_rate::.cpu.data     0.021970                       # mshr miss rate for WriteReq accesses
system.cpu.dcache.WriteReq_mshr_miss_rate::total     0.021970                       # mshr miss rate for WriteReq accesses
system.cpu.dcache.WriteReq_avg_mshr_miss_latency::.cpu.data 43433.850187                       # average WriteReq mshr miss latency
system.cpu.dcache.WriteReq_avg_mshr_miss_latency::total 43433.850187                       # average WriteReq mshr miss latency
system.cpu.dcache.power_state.pwrStateResidencyTicks::UNDEFINED 150563208000                       # Cumulative time (in ticks) in various power states
system.cpu.dcache.tags.tagsinuse          1023.111839                       # Cycle average of tags in use
system.cpu.dcache.tags.total_refs            79922721                       # Total number of references to valid blocks.
system.cpu.dcache.tags.sampled_refs           6610357                       # Sample count of references to valid blocks.
system.cpu.dcache.tags.avg_refs             12.090530                       # Average number of references to valid blocks.
system.cpu.dcache.tags.warmup_cycle            222000                       # Cycle when the warmup percentage was hit.
system.cpu.dcache.tags.occ_blocks::.cpu.data  1023.111839                       # Average occupied blocks per requestor
system.cpu.dcache.tags.occ_percent::.cpu.data     0.999133                       # Average percentage of cache occupancy
system.cpu.dcache.tags.occ_percent::total     0.999133                       # Average percentage of cache occupancy
system.cpu.dcache.tags.occ_task_id_blocks::1024         1024                       # Occupied blocks per task id
system.cpu.dcache.tags.age_task_id_blocks_1024::0           82                       # Occupied blocks per task id
system.cpu.dcache.tags.age_task_id_blocks_1024::1          264                       # Occupied blocks per task id
system.cpu.dcache.tags.age_task_id_blocks_1024::2          678                       # Occupied blocks per task id
system.cpu.dcache.tags.occ_task_id_percent::1024            1                       # Percentage of cache occupancy per task id
system.cpu.dcache.tags.tag_accesses         244209247                       # Number of tag accesses
system.cpu.dcache.tags.data_accesses        244209247                       # Number of data accesses
system.cpu.dcache.tags.power_state.pwrStateResidencyTicks::UNDEFINED 150563208000                       # Cumulative time (in ticks) in various power states
system.cpu.decode.idleCycles                 12096651                       # Number of cycles decode is idle
system.cpu.decode.blockedCycles              56730177                       # Number of cycles decode is blocked
system.cpu.decode.runCycles                  63648027                       # Number of cycles decode is running
system.cpu.decode.unblockCycles              16751145                       # Number of cycles decode is unblocking
system.cpu.decode.squashCycles                 871445                       # Number of cycles decode is squashing
system.cpu.decode.branchResolved             46095917                       # Number of times decode resolved a  branch
system.cpu.decode.branchMispred                  1801                       # Number of times decode detected a branch misprediction
system.cpu.decode.decodedInsts              587935777                       # Number of instructions handled by decode
system.cpu.decode.squashedInsts                  8768                       # Number of squashed instructions handled by decode
system.cpu.dtb.rdAccesses                   113612746                       # TLB accesses on read requests
system.cpu.dtb.wrAccesses                     5394725                       # TLB accesses on write requests
system.cpu.dtb.rdMisses                        116376                       # TLB misses on read requests
system.cpu.dtb.wrMisses                          1756                       # TLB misses on write requests
system.cpu.dtb.walker.power_state.pwrStateResidencyTicks::UNDEFINED 150563208000                       # Cumulative time (in ticks) in various power states
system.cpu.fetch.icacheStallCycles            6408675                       # Number of cycles fetch is stalled on an Icache miss
system.cpu.fetch.insts                      330160864                       # Number of instructions fetch has processed
system.cpu.fetch.branches                    55839595                       # Number of branches that fetch encountered
system.cpu.fetch.predictedBranches           47466419                       # Number of branches that fetch has predicted taken
system.cpu.fetch.cycles                     142814180                       # Number of cycles fetch has run and was not squashing or blocked
system.cpu.fetch.squashCycles                 1746456                       # Number of cycles fetch has spent squashing
system.cpu.fetch.miscStallCycles                  179                       # Number of cycles fetch has spent waiting on interrupts,or bad addresses, or out of MSHRs
system.cpu.fetch.pendingTrapStallCycles          1150                       # Number of stall cycles due to pending traps
system.cpu.fetch.pendingQuiesceStallCycles            2                       # Number of stall cycles due to pending quiesce instructions
system.cpu.fetch.icacheWaitRetryStallCycles           31                       # Number of stall cycles due to full MSHR
system.cpu.fetch.cacheLines                   5835641                       # Number of cache lines fetched
system.cpu.fetch.icacheSquashes                 10175                       # Number of outstanding Icache misses that were squashed
system.cpu.fetch.nisnDist::samples          150097445                       # Number of instructions fetched each cycle (Total)
system.cpu.fetch.nisnDist::mean              4.031985                       # Number of instructions fetched each cycle (Total)
system.cpu.fetch.nisnDist::stdev             3.289395                       # Number of instructions fetched each cycle (Total)
system.cpu.fetch.nisnDist::underflows               0      0.00%      0.00% # Number of instructions fetched each cycle (Total)
system.cpu.fetch.nisnDist::0                 49391847     32.91%     32.91% # Number of instructions fetched each cycle (Total)
system.cpu.fetch.nisnDist::1                  4701936      3.13%     36.04% # Number of instructions fetched each cycle (Total)
system.cpu.fetch.nisnDist::2                  3250386      2.17%     38.20% # Number of instructions fetched each cycle (Total)
system.cpu.fetch.nisnDist::3                  3221194      2.15%     40.35% # Number of instructions fetched each cycle (Total)
system.cpu.fetch.nisnDist::4                  4831584      3.22%     43.57% # Number of instructions fetched each cycle (Total)
system.cpu.fetch.nisnDist::5                 32831091     21.87%     65.44% # Number of instructions fetched each cycle (Total)
system.cpu.fetch.nisnDist::6                  5731852      3.82%     69.26% # Number of instructions fetched each cycle (Total)
system.cpu.fetch.nisnDist::7                  2648980      1.76%     71.03% # Number of instructions fetched each cycle (Total)
system.cpu.fetch.nisnDist::8                 43488575     28.97%    100.00% # Number of instructions fetched each cycle (Total)
system.cpu.fetch.nisnDist::overflows                0      0.00%    100.00% # Number of instructions fetched each cycle (Total)
system.cpu.fetch.nisnDist::min_value                0                       # Number of instructions fetched each cycle (Total)
system.cpu.fetch.nisnDist::max_value                8                       # Number of instructions fetched each cycle (Total)
system.cpu.fetch.nisnDist::total            150097445                       # Number of instructions fetched each cycle (Total)
system.cpu.fetch.branchRate                  0.370871                       # Number of branch fetches per cycle
system.cpu.fetch.rate                        2.192839                       # Number of inst fetches per cycle
system.cpu.icache.demand_hits::.cpu.inst      5813663                       # number of demand (read+write) hits
system.cpu.icache.demand_hits::total          5813663                       # number of demand (read+write) hits
system.cpu.icache.overall_hits::.cpu.inst      5813663                       # number of overall hits
system.cpu.icache.overall_hits::total         5813663                       # number of overall hits
system.cpu.icache.demand_misses::.cpu.inst        21978                       # number of demand (read+write) misses
system.cpu.icache.demand_misses::total          21978                       # number of demand (read+write) misses
system.cpu.icache.overall_misses::.cpu.inst        21978                       # number of overall misses
system.cpu.icache.overall_misses::total         21978                       # number of overall misses
system.cpu.icache.demand_miss_latency::.cpu.inst   1237215000                       # number of demand (read+write) miss cycles
system.cpu.icache.demand_miss_latency::total   1237215000                       # number of demand (read+write) miss cycles
system.cpu.icache.overall_miss_latency::.cpu.inst   1237215000                       # number of overall miss cycles
system.cpu.icache.overall_miss_latency::total   1237215000                       # number of overall miss cycles
system.cpu.icache.demand_accesses::.cpu.inst      5835641                       # number of demand (read+write) accesses
system.cpu.icache.demand_accesses::total      5835641                       # number of demand (read+write) accesses
system.cpu.icache.overall_accesses::.cpu.inst      5835641                       # number of overall (read+write) accesses
system.cpu.icache.overall_accesses::total      5835641                       # number of overall (read+write) accesses
system.cpu.icache.demand_miss_rate::.cpu.inst     0.003766                       # miss rate for demand accesses
system.cpu.icache.demand_miss_rate::total     0.003766                       # miss rate for demand accesses
system.cpu.icache.overall_miss_rate::.cpu.inst     0.003766                       # miss rate for overall accesses
system.cpu.icache.overall_miss_rate::total     0.003766                       # miss rate for overall accesses
system.cpu.icache.demand_avg_miss_latency::.cpu.inst 56293.338793                       # average overall miss latency
system.cpu.icache.demand_avg_miss_latency::total 56293.338793                       # average overall miss latency
system.cpu.icache.overall_avg_miss_latency::.cpu.inst 56293.338793                       # average overall miss latency
system.cpu.icache.overall_avg_miss_latency::total 56293.338793                       # average overall miss latency
system.cpu.icache.blocked_cycles::no_mshrs          449                       # number of cycles access was blocked
system.cpu.icache.blocked_cycles::no_targets            0                       # number of cycles access was blocked
system.cpu.icache.blocked::no_mshrs                12                       # number of cycles access was blocked
system.cpu.icache.blocked::no_targets               0                       # number of cycles access was blocked
system.cpu.icache.avg_blocked_cycles::no_mshrs    37.416667                       # average number of cycles each access was blocked
system.cpu.icache.avg_blocked_cycles::no_targets          nan                       # average number of cycles each access was blocked
system.cpu.icache.demand_mshr_hits::.cpu.inst         1461                       # number of demand (read+write) MSHR hits
system.cpu.icache.demand_mshr_hits::total         1461                       # number of demand (read+write) MSHR hits
system.cpu.icache.overall_mshr_hits::.cpu.inst         1461                       # number of overall MSHR hits
system.cpu.icache.overall_mshr_hits::total         1461                       # number of overall MSHR hits
system.cpu.icache.demand_mshr_misses::.cpu.inst        20517                       # number of demand (read+write) MSHR misses
system.cpu.icache.demand_mshr_misses::total        20517                       # number of demand (read+write) MSHR misses
system.cpu.icache.overall_mshr_misses::.cpu.inst        20517                       # number of overall MSHR misses
system.cpu.icache.overall_mshr_misses::total        20517                       # number of overall MSHR misses
system.cpu.icache.demand_mshr_miss_latency::.cpu.inst   1117721000                       # number of demand (read+write) MSHR miss cycles
system.cpu.icache.demand_mshr_miss_latency::total   1117721000                       # number of demand (read+write) MSHR miss cycles
system.cpu.icache.overall_mshr_miss_latency::.cpu.inst   1117721000                       # number of overall MSHR miss cycles
system.cpu.icache.overall_mshr_miss_latency::total   1117721000                       # number of overall MSHR miss cycles
system.cpu.icache.demand_mshr_miss_rate::.cpu.inst     0.003516                       # mshr miss rate for demand accesses
system.cpu.icache.demand_mshr_miss_rate::total     0.003516                       # mshr miss rate for demand accesses
system.cpu.icache.overall_mshr_miss_rate::.cpu.inst     0.003516                       # mshr miss rate for overall accesses
system.cpu.icache.overall_mshr_miss_rate::total     0.003516                       # mshr miss rate for overall accesses
system.cpu.icache.demand_avg_mshr_miss_latency::.cpu.inst 54477.798898                       # average overall mshr miss latency
system.cpu.icache.demand_avg_mshr_miss_latency::total 54477.798898                       # average overall mshr miss latency
system.cpu.icache.overall_avg_mshr_miss_latency::.cpu.inst 54477.798898                       # average overall mshr miss latency
system.cpu.icache.overall_avg_mshr_miss_latency::total 54477.798898                       # average overall mshr miss latency
system.cpu.icache.replacements                  20257                       # number of replacements
system.cpu.icache.ReadReq_hits::.cpu.inst      5813663                       # number of ReadReq hits
system.cpu.icache.ReadReq_hits::total         5813663                       # number of ReadReq hits
system.cpu.icache.ReadReq_misses::.cpu.inst        21978                       # number of ReadReq misses
system.cpu.icache.ReadReq_misses::total         21978                       # number of ReadReq misses
system.cpu.icache.ReadReq_miss_latency::.cpu.inst   1237215000                       # number of ReadReq miss cycles
system.cpu.icache.ReadReq_miss_latency::total   1237215000                       # number of ReadReq miss cycles
system.cpu.icache.ReadReq_accesses::.cpu.inst      5835641                       # number of ReadReq accesses(hits+misses)
system.cpu.icache.ReadReq_accesses::total      5835641                       # number of ReadReq accesses(hits+misses)
system.cpu.icache.ReadReq_miss_rate::.cpu.inst     0.003766                       # miss rate for ReadReq accesses
system.cpu.icache.ReadReq_miss_rate::total     0.003766                       # miss rate for ReadReq accesses
system.cpu.icache.ReadReq_avg_miss_latency::.cpu.inst 56293.338793                       # average ReadReq miss latency
system.cpu.icache.ReadReq_avg_miss_latency::total 56293.338793                       # average ReadReq miss latency
system.cpu.icache.ReadReq_mshr_hits::.cpu.inst         1461                       # number of ReadReq MSHR hits
system.cpu.icache.ReadReq_mshr_hits::total         1461                       # number of ReadReq MSHR hits
system.cpu.icache.ReadReq_mshr_misses::.cpu.inst        20517                       # number of ReadReq MSHR misses
system.cpu.icache.ReadReq_mshr_misses::total        20517                       # number of ReadReq MSHR misses
system.cpu.icache.ReadReq_mshr_miss_latency::.cpu.inst   1117721000                       # number of ReadReq MSHR miss cycles
system.cpu.icache.ReadReq_mshr_miss_latency::total   1117721000                       # number of ReadReq MSHR miss cycles
system.cpu.icache.ReadReq_mshr_miss_rate::.cpu.inst     0.003516                       # mshr miss rate for ReadReq accesses
system.cpu.icache.ReadReq_mshr_miss_rate::total     0.003516                       # mshr miss rate for ReadReq accesses
system.cpu.icache.ReadReq_avg_mshr_miss_latency::.cpu.inst 54477.798898                       # average ReadReq mshr miss latency
system.cpu.icache.ReadReq_avg_mshr_miss_latency::total 54477.798898                       # average ReadReq mshr miss latency
system.cpu.icache.power_state.pwrStateResidencyTicks::UNDEFINED 150563208000                       # Cumulative time (in ticks) in various power states
system.cpu.icache.tags.tagsinuse           255.961329                       # Cycle average of tags in use
system.cpu.icache.tags.total_refs             5834180                       # Total number of references to valid blocks.
system.cpu.icache.tags.sampled_refs             20517                       # Sample count of references to valid blocks.
system.cpu.icache.tags.avg_refs            284.358337                       # Average number of references to valid blocks.
system.cpu.icache.tags.warmup_cycle            107000                       # Cycle when the warmup percentage was hit.
system.cpu.icache.tags.occ_blocks::.cpu.inst   255.961329                       # Average occupied blocks per requestor
system.cpu.icache.tags.occ_percent::.cpu.inst     0.999849                       # Average percentage of cache occupancy
system.cpu.icache.tags.occ_percent::total     0.999849                       # Average percentage of cache occupancy
system.cpu.icache.tags.occ_task_id_blocks::1024          256                       # Occupied blocks per task id
system.cpu.icache.tags.age_task_id_blocks_1024::0           56                       # Occupied blocks per task id
system.cpu.icache.tags.age_task_id_blocks_1024::1          121                       # Occupied blocks per task id
system.cpu.icache.tags.age_task_id_blocks_1024::2           75                       # Occupied blocks per task id
system.cpu.icache.tags.age_task_id_blocks_1024::4            4                       # Occupied blocks per task id
system.cpu.icache.tags.occ_task_id_percent::1024            1                       # Percentage of cache occupancy per task id
system.cpu.icache.tags.tag_accesses          11691799                       # Number of tag accesses
system.cpu.icache.tags.data_accesses         11691799                       # Number of data accesses
system.cpu.icache.tags.power_state.pwrStateResidencyTicks::UNDEFINED 150563208000                       # Cumulative time (in ticks) in various power states
system.cpu.interrupts.clk_domain.clock          16000                       # Clock period in ticks
system.cpu.itb.rdAccesses                           0                       # TLB accesses on read requests
system.cpu.itb.wrAccesses                     5835851                       # TLB accesses on write requests
system.cpu.itb.rdMisses                             0                       # TLB misses on read requests
system.cpu.itb.wrMisses                           347                       # TLB misses on write requests
system.cpu.itb.walker.power_state.pwrStateResidencyTicks::UNDEFINED 150563208000                       # Cumulative time (in ticks) in various power states
system.cpu.lsq0.forwLoads                      174466                       # Number of loads that had data forwarded from stores
system.cpu.lsq0.squashedLoads                 4684434                       # Number of loads squashed
system.cpu.lsq0.ignoredResponses                   88                       # Number of memory responses ignored because the instruction is squashed
system.cpu.lsq0.memOrderViolation                3339                       # Number of memory ordering violations
system.cpu.lsq0.squashedStores                 281978                       # Number of stores squashed
system.cpu.lsq0.rescheduledLoads                 1600                       # Number of loads that were rescheduled
system.cpu.lsq0.blockedByCache                  61171                       # Number of times an access to memory failed due to the cache being blocked
system.cpu.power_state.pwrStateResidencyTicks::ON 150563208000                       # Cumulative time (in ticks) in various power states
system.cpu.rename.squashCycles                 871445                       # Number of cycles rename is squashing
system.cpu.rename.idleCycles                 19924827                       # Number of cycles rename is idle
system.cpu.rename.blockCycles                 9772263                       # Number of cycles rename is blocking
system.cpu.rename.serializeStallCycles            121                       # count of cycles rename stalledfor serializing inst
system.cpu.rename.runCycles                  71947767                       # Number of cycles rename is running
system.cpu.rename.unblockCycles              47581022                       # Number of cycles rename is unblocking
system.cpu.rename.renamedInsts              582458997                       # Number of instructions processed by rename
system.cpu.rename.ROBFullEvents                994083                       # Number of times rename has blocked due to ROB full
system.cpu.rename.IQFullEvents               16753438                       # Number of times rename has blocked due to IQ full
system.cpu.rename.LQFullEvents               22623794                       # Number of times rename has blocked due to LQ full
system.cpu.rename.SQFullEvents                3694329                       # Number of times rename has blocked due to SQ full
system.cpu.rename.renamedOperands           717180984                       # Number of destination operands rename has renamed
system.cpu.rename.lookups                  1342728476                       # Number of register rename lookups that rename has made
system.cpu.rename.intLookups                603872739                       # Number of integer rename lookups
system.cpu.rename.fpLookups                 234882322                       # Number of floating rename lookups
system.cpu.rename.committedMaps             670750734                       # Number of HB maps that are committed
system.cpu.rename.undoneMaps                 46430244                       # Number of HB maps that are undone due to squashing
system.cpu.rename.serializing                      12                       # count of serializing insts renamed
system.cpu.rename.tempSerializing                  12                       # count of temporary serializing insts renamed
system.cpu.rename.skidInsts                  91382498                       # count of insts added to the skid buffer
system.cpu.rob.reads                        662411247                       # The number of ROB reads
system.cpu.rob.writes                      1150462801                       # The number of ROB writes
system.cpu.thread_0.numInsts                297181572                       # Number of Instructions committed
system.cpu.thread_0.numOps                  545365690                       # Number of Ops committed
system.cpu.thread_0.numMemRefs                      0                       # Number of Memory References
system.l2bus.trans_dist::ReadResp             6513031                       # Transaction distribution
system.l2bus.trans_dist::WritebackDirty       2809523                       # Transaction distribution
system.l2bus.trans_dist::CleanEvict           4087134                       # Transaction distribution
system.l2bus.trans_dist::UpgradeReq                 2                       # Transaction distribution
system.l2bus.trans_dist::UpgradeResp                2                       # Transaction distribution
system.l2bus.trans_dist::ReadExReq             117843                       # Transaction distribution
system.l2bus.trans_dist::ReadExResp            117843                       # Transaction distribution
system.l2bus.trans_dist::ReadSharedReq        6513031                       # Transaction distribution
system.l2bus.pkt_count_system.cpu.icache.mem_side_port::system.l2cache.cpu_side_port        61283                       # Packet count per connected requestor and responder (bytes)
system.l2bus.pkt_count_system.cpu.dcache.mem_side_port::system.l2cache.cpu_side_port     19830051                       # Packet count per connected requestor and responder (bytes)
system.l2bus.pkt_count::total                19891334                       # Packet count per connected requestor and responder (bytes)
system.l2bus.pkt_size_system.cpu.icache.mem_side_port::system.l2cache.cpu_side_port      1312576                       # Cumulative packet size per connected requestor and responder (bytes)
system.l2bus.pkt_size_system.cpu.dcache.mem_side_port::system.l2cache.cpu_side_port    600603008                       # Cumulative packet size per connected requestor and responder (bytes)
system.l2bus.pkt_size::total                601915584                       # Cumulative packet size per connected requestor and responder (bytes)
system.l2bus.snoops                            267075                       # Total snoops (count)
system.l2bus.snoopTraffic                     2269824                       # Total snoop traffic (bytes)
system.l2bus.snoop_fanout::samples            6897943                       # Request fanout histogram
system.l2bus.snoop_fanout::mean              0.002331                       # Request fanout histogram
system.l2bus.snoop_fanout::stdev             0.048228                       # Request fanout histogram
system.l2bus.snoop_fanout::underflows               0      0.00%      0.00% # Request fanout histogram
system.l2bus.snoop_fanout::0                  6881861     99.77%     99.77% # Request fanout histogram
system.l2bus.snoop_fanout::1                    16082      0.23%    100.00% # Request fanout histogram
system.l2bus.snoop_fanout::2                        0      0.00%    100.00% # Request fanout histogram
system.l2bus.snoop_fanout::overflows                0      0.00%    100.00% # Request fanout histogram
system.l2bus.snoop_fanout::min_value                0                       # Request fanout histogram
system.l2bus.snoop_fanout::max_value                1                       # Request fanout histogram
system.l2bus.snoop_fanout::total              6897943                       # Request fanout histogram
system.l2bus.power_state.pwrStateResidencyTicks::UNDEFINED 150563208000                       # Cumulative time (in ticks) in various power states
system.l2bus.reqLayer0.occupancy          18808596000                       # Layer occupancy (ticks)
system.l2bus.reqLayer0.utilization               12.5                       # Layer utilization (%)
system.l2bus.respLayer0.occupancy            61551999                       # Layer occupancy (ticks)
system.l2bus.respLayer0.utilization               0.0                       # Layer utilization (%)
system.l2bus.respLayer1.occupancy         19831074998                       # Layer occupancy (ticks)
system.l2bus.respLayer1.utilization              13.2                       # Layer utilization (%)
system.l2cache.demand_hits::.cpu.inst           12688                       # number of demand (read+write) hits
system.l2cache.demand_hits::.cpu.data         6348532                       # number of demand (read+write) hits
system.l2cache.demand_hits::total             6361220                       # number of demand (read+write) hits
system.l2cache.overall_hits::.cpu.inst          12688                       # number of overall hits
system.l2cache.overall_hits::.cpu.data        6348532                       # number of overall hits
system.l2cache.overall_hits::total            6361220                       # number of overall hits
system.l2cache.demand_misses::.cpu.inst          7821                       # number of demand (read+write) misses
system.l2cache.demand_misses::.cpu.data        261825                       # number of demand (read+write) misses
system.l2cache.demand_misses::total            269646                       # number of demand (read+write) misses
system.l2cache.overall_misses::.cpu.inst         7821                       # number of overall misses
system.l2cache.overall_misses::.cpu.data       261825                       # number of overall misses
system.l2cache.overall_misses::total           269646                       # number of overall misses
system.l2cache.demand_miss_latency::.cpu.inst    789482000                       # number of demand (read+write) miss cycles
system.l2cache.demand_miss_latency::.cpu.data  25138886000                       # number of demand (read+write) miss cycles
system.l2cache.demand_miss_latency::total  25928368000                       # number of demand (read+write) miss cycles
system.l2cache.overall_miss_latency::.cpu.inst    789482000                       # number of overall miss cycles
system.l2cache.overall_miss_latency::.cpu.data  25138886000                       # number of overall miss cycles
system.l2cache.overall_miss_latency::total  25928368000                       # number of overall miss cycles
system.l2cache.demand_accesses::.cpu.inst        20509                       # number of demand (read+write) accesses
system.l2cache.demand_accesses::.cpu.data      6610357                       # number of demand (read+write) accesses
system.l2cache.demand_accesses::total         6630866                       # number of demand (read+write) accesses
system.l2cache.overall_accesses::.cpu.inst        20509                       # number of overall (read+write) accesses
system.l2cache.overall_accesses::.cpu.data      6610357                       # number of overall (read+write) accesses
system.l2cache.overall_accesses::total        6630866                       # number of overall (read+write) accesses
system.l2cache.demand_miss_rate::.cpu.inst     0.381345                       # miss rate for demand accesses
system.l2cache.demand_miss_rate::.cpu.data     0.039608                       # miss rate for demand accesses
system.l2cache.demand_miss_rate::total       0.040665                       # miss rate for demand accesses
system.l2cache.overall_miss_rate::.cpu.inst     0.381345                       # miss rate for overall accesses
system.l2cache.overall_miss_rate::.cpu.data     0.039608                       # miss rate for overall accesses
system.l2cache.overall_miss_rate::total      0.040665                       # miss rate for overall accesses
system.l2cache.demand_avg_miss_latency::.cpu.inst 100943.869070                       # average overall miss latency
system.l2cache.demand_avg_miss_latency::.cpu.data 96014.078106                       # average overall miss latency
system.l2cache.demand_avg_miss_latency::total 96157.065189                       # average overall miss latency
system.l2cache.overall_avg_miss_latency::.cpu.inst 100943.869070                       # average overall miss latency
system.l2cache.overall_avg_miss_latency::.cpu.data 96014.078106                       # average overall miss latency
system.l2cache.overall_avg_miss_latency::total 96157.065189                       # average overall miss latency
system.l2cache.blocked_cycles::no_mshrs             0                       # number of cycles access was blocked
system.l2cache.blocked_cycles::no_targets            0                       # number of cycles access was blocked
system.l2cache.blocked::no_mshrs                    0                       # number of cycles access was blocked
[...]
system.mem_ctrl.requestorReadRate::.cpu.data 107874853.463536724448                       # Per-requestor bytes read from memory rate (Bytes/sec)
system.mem_ctrl.requestorWriteRate::.writebacks 12090709.438125148416                       # Per-requestor bytes write to memory rate (Bytes/sec)
system.mem_ctrl.requestorReadAccesses::.cpu.inst         7821                       # Per-requestor read serviced memory accesses
system.mem_ctrl.requestorReadAccesses::.cpu.data       261825                       # Per-requestor read serviced memory accesses
system.mem_ctrl.requestorWriteAccesses::.writebacks        35458                       # Per-requestor write serviced memory accesses
system.mem_ctrl.requestorReadTotalLat::.cpu.inst    231476000                       # Per-requestor read total memory access latency
system.mem_ctrl.requestorReadTotalLat::.cpu.data   6554484500                       # Per-requestor read total memory access latency
system.mem_ctrl.requestorWriteTotalLat::.writebacks 3601743161000                       # Per-requestor write total memory access latency
system.mem_ctrl.requestorReadAvgLat::.cpu.inst     29596.73                       # Per-requestor read average memory access latency
system.mem_ctrl.requestorReadAvgLat::.cpu.data     25033.84                       # Per-requestor read average memory access latency
system.mem_ctrl.requestorWriteAvgLat::.writebacks 101577730.30                       # Per-requestor write average memory access latency
system.mem_ctrl.dram.bytes_read::.cpu.inst       500544                       # Number of bytes read from this memory
system.mem_ctrl.dram.bytes_read::.cpu.data     16756800                       # Number of bytes read from this memory
system.mem_ctrl.dram.bytes_read::total       17257344                       # Number of bytes read from this memory
system.mem_ctrl.dram.bytes_inst_read::.cpu.inst       500544                       # Number of instructions bytes read from this memory
system.mem_ctrl.dram.bytes_inst_read::total       500544                       # Number of instructions bytes read from this memory
system.mem_ctrl.dram.bytes_written::.writebacks      2269312                       # Number of bytes written to this memory
system.mem_ctrl.dram.bytes_written::total      2269312                       # Number of bytes written to this memory
system.mem_ctrl.dram.num_reads::.cpu.inst         7821                       # Number of read requests responded to by this memory
system.mem_ctrl.dram.num_reads::.cpu.data       261825                       # Number of read requests responded to by this memory
system.mem_ctrl.dram.num_reads::total          269646                       # Number of read requests responded to by this memory
system.mem_ctrl.dram.num_writes::.writebacks        35458                       # Number of write requests responded to by this memory
system.mem_ctrl.dram.num_writes::total          35458                       # Number of write requests responded to by this memory
system.mem_ctrl.dram.bw_read::.cpu.inst       3324478                       # Total read bandwidth from this memory (bytes/s)
system.mem_ctrl.dram.bw_read::.cpu.data     111294122                       # Total read bandwidth from this memory (bytes/s)
system.mem_ctrl.dram.bw_read::total         114618599                       # Total read bandwidth from this memory (bytes/s)
system.mem_ctrl.dram.bw_inst_read::.cpu.inst      3324478                       # Instruction read bandwidth from this memory (bytes/s)
system.mem_ctrl.dram.bw_inst_read::total      3324478                       # Instruction read bandwidth from this memory (bytes/s)
system.mem_ctrl.dram.bw_write::.writebacks     15072155                       # Write bandwidth from this memory (bytes/s)
system.mem_ctrl.dram.bw_write::total         15072155                       # Write bandwidth from this memory (bytes/s)
system.mem_ctrl.dram.bw_total::.writebacks     15072155                       # Total bandwidth to/from this memory (bytes/s)
system.mem_ctrl.dram.bw_total::.cpu.inst      3324478                       # Total bandwidth to/from this memory (bytes/s)
system.mem_ctrl.dram.bw_total::.cpu.data    111294122                       # Total bandwidth to/from this memory (bytes/s)
system.mem_ctrl.dram.bw_total::total        129690754                       # Total bandwidth to/from this memory (bytes/s)
system.mem_ctrl.dram.readBursts                261602                       # Number of DRAM read bursts
system.mem_ctrl.dram.writeBursts                28444                       # Number of DRAM write bursts
system.mem_ctrl.dram.perBankRdBursts::0          9884                       # Per bank write bursts
system.mem_ctrl.dram.perBankRdBursts::1          5272                       # Per bank write bursts
system.mem_ctrl.dram.perBankRdBursts::2          3667                       # Per bank write bursts
system.mem_ctrl.dram.perBankRdBursts::3          3455                       # Per bank write bursts
system.mem_ctrl.dram.perBankRdBursts::4          4031                       # Per bank write bursts
system.mem_ctrl.dram.perBankRdBursts::5          6886                       # Per bank write bursts
system.mem_ctrl.dram.perBankRdBursts::6         82924                       # Per bank write bursts
system.mem_ctrl.dram.perBankRdBursts::7         89524                       # Per bank write bursts
system.mem_ctrl.dram.perBankRdBursts::8          8586                       # Per bank write bursts
system.mem_ctrl.dram.perBankRdBursts::9          3515                       # Per bank write bursts
system.mem_ctrl.dram.perBankRdBursts::10         4921                       # Per bank write bursts
system.mem_ctrl.dram.perBankRdBursts::11         2583                       # Per bank write bursts
system.mem_ctrl.dram.perBankRdBursts::12         3343                       # Per bank write bursts
system.mem_ctrl.dram.perBankRdBursts::13         4999                       # Per bank write bursts
system.mem_ctrl.dram.perBankRdBursts::14         9435                       # Per bank write bursts
system.mem_ctrl.dram.perBankRdBursts::15        18577                       # Per bank write bursts
system.mem_ctrl.dram.perBankWrBursts::0          2358                       # Per bank write bursts
system.mem_ctrl.dram.perBankWrBursts::1          1875                       # Per bank write bursts
system.mem_ctrl.dram.perBankWrBursts::2          1982                       # Per bank write bursts
system.mem_ctrl.dram.perBankWrBursts::3          2026                       # Per bank write bursts
system.mem_ctrl.dram.perBankWrBursts::4          1374                       # Per bank write bursts
system.mem_ctrl.dram.perBankWrBursts::5          1492                       # Per bank write bursts
system.mem_ctrl.dram.perBankWrBursts::6          2437                       # Per bank write bursts
system.mem_ctrl.dram.perBankWrBursts::7          2654                       # Per bank write bursts
system.mem_ctrl.dram.perBankWrBursts::8          1849                       # Per bank write bursts
system.mem_ctrl.dram.perBankWrBursts::9           851                       # Per bank write bursts
system.mem_ctrl.dram.perBankWrBursts::10          775                       # Per bank write bursts
system.mem_ctrl.dram.perBankWrBursts::11          956                       # Per bank write bursts
system.mem_ctrl.dram.perBankWrBursts::12         1230                       # Per bank write bursts
system.mem_ctrl.dram.perBankWrBursts::13         2090                       # Per bank write bursts
system.mem_ctrl.dram.perBankWrBursts::14         1983                       # Per bank write bursts
system.mem_ctrl.dram.perBankWrBursts::15         2512                       # Per bank write bursts
system.mem_ctrl.dram.totQLat               1880923000                       # Total ticks spent queuing
system.mem_ctrl.dram.totBusLat             1308010000                       # Total ticks spent in databus transfers
system.mem_ctrl.dram.totMemAccLat          6785960500                       # Total ticks spent from burst creation until serviced by the DRAM
system.mem_ctrl.dram.avgQLat                  7190.02                       # Average queueing delay per DRAM burst
system.mem_ctrl.dram.avgBusLat                5000.00                       # Average bus latency per DRAM burst
system.mem_ctrl.dram.avgMemAccLat            25940.02                       # Average memory access latency per DRAM burst
system.mem_ctrl.dram.readRowHits               221038                       # Number of row buffer hits during reads
system.mem_ctrl.dram.writeRowHits               21788                       # Number of row buffer hits during writes
system.mem_ctrl.dram.readRowHitRate             84.49                       # Row buffer hit rate for reads
system.mem_ctrl.dram.writeRowHitRate            76.60                       # Row buffer hit rate for writes
system.mem_ctrl.dram.bytesPerActivate::samples        47218                       # Bytes accessed per row activation
system.mem_ctrl.dram.bytesPerActivate::mean   393.130078                       # Bytes accessed per row activation
system.mem_ctrl.dram.bytesPerActivate::gmean   228.920012                       # Bytes accessed per row activation
system.mem_ctrl.dram.bytesPerActivate::stdev   375.267785                       # Bytes accessed per row activation
system.mem_ctrl.dram.bytesPerActivate::0-127        13945     29.53%     29.53% # Bytes accessed per row activation
system.mem_ctrl.dram.bytesPerActivate::128-255        11838     25.07%     54.60% # Bytes accessed per row activation
system.mem_ctrl.dram.bytesPerActivate::256-383         2684      5.68%     60.29% # Bytes accessed per row activation
system.mem_ctrl.dram.bytesPerActivate::384-511         3246      6.87%     67.16% # Bytes accessed per row activation
system.mem_ctrl.dram.bytesPerActivate::512-639         1989      4.21%     71.38% # Bytes accessed per row activation
system.mem_ctrl.dram.bytesPerActivate::640-767         2299      4.87%     76.24% # Bytes accessed per row activation
system.mem_ctrl.dram.bytesPerActivate::768-895          845      1.79%     78.03% # Bytes accessed per row activation
system.mem_ctrl.dram.bytesPerActivate::896-1023          945      2.00%     80.04% # Bytes accessed per row activation
system.mem_ctrl.dram.bytesPerActivate::1024-1151         9427     19.96%    100.00% # Bytes accessed per row activation
system.mem_ctrl.dram.bytesPerActivate::total        47218                       # Bytes accessed per row activation
system.mem_ctrl.dram.bytesRead               16742528                       # Total number of bytes read from DRAM
system.mem_ctrl.dram.bytesWritten             1820416                       # Total number of bytes written to DRAM
system.mem_ctrl.dram.avgRdBW               111.199331                       # Average DRAM read bandwidth in MiBytes/s
system.mem_ctrl.dram.avgWrBW                12.090709                       # Average DRAM write bandwidth in MiBytes/s
system.mem_ctrl.dram.peakBW                  12800.00                       # Theoretical peak bandwidth in MiByte/s
system.mem_ctrl.dram.busUtil                     0.96                       # Data bus utilization in percentage
system.mem_ctrl.dram.busUtilRead                 0.87                       # Data bus utilization in percentage for reads
system.mem_ctrl.dram.busUtilWrite                0.09                       # Data bus utilization in percentage for writes
system.mem_ctrl.dram.pageHitRate                83.72                       # Row buffer hit rate, read and write combined
system.mem_ctrl.dram.power_state.pwrStateResidencyTicks::UNDEFINED 150563208000                       # Cumulative time (in ticks) in various power states
system.mem_ctrl.dram.rank0.actEnergy        220261860                       # Energy for activate commands per rank (pJ)
system.mem_ctrl.dram.rank0.preEnergy        117068160                       # Energy for precharge commands per rank (pJ)
system.mem_ctrl.dram.rank0.readEnergy      1468291020                       # Energy for read commands per rank (pJ)
system.mem_ctrl.dram.rank0.writeEnergy       84553560                       # Energy for write commands per rank (pJ)
system.mem_ctrl.dram.rank0.refreshEnergy 11885293680.000002                       # Energy for refresh commands per rank (pJ)
system.mem_ctrl.dram.rank0.actBackEnergy  30390558900                       # Energy for active background per rank (pJ)
system.mem_ctrl.dram.rank0.preBackEnergy  32224222560                       # Energy for precharge background per rank (pJ)
system.mem_ctrl.dram.rank0.actPowerDownEnergy            0                       # Energy for active power-down per rank (pJ)
system.mem_ctrl.dram.rank0.prePowerDownEnergy            0                       # Energy for precharge power-down per rank (pJ)
system.mem_ctrl.dram.rank0.selfRefreshEnergy            0                       # Energy for self refresh per rank (pJ)
system.mem_ctrl.dram.rank0.totalEnergy    76390249740                       # Total energy per rank (pJ)
system.mem_ctrl.dram.rank0.averagePower    507.363324                       # Core power per rank (mW)
system.mem_ctrl.dram.rank0.totalIdleTime            0                       # Total Idle time Per DRAM Rank
system.mem_ctrl.dram.rank0.pwrStateTime::IDLE  83429884250                       # Time in different power states
system.mem_ctrl.dram.rank0.pwrStateTime::REF   5027620000                       # Time in different power states
system.mem_ctrl.dram.rank0.pwrStateTime::SREF            0                       # Time in different power states
system.mem_ctrl.dram.rank0.pwrStateTime::PRE_PDN            0                       # Time in different power states
system.mem_ctrl.dram.rank0.pwrStateTime::ACT  62105703750                       # Time in different power states
system.mem_ctrl.dram.rank0.pwrStateTime::ACT_PDN            0                       # Time in different power states
system.mem_ctrl.dram.rank1.actEnergy        116888940                       # Energy for activate commands per rank (pJ)
system.mem_ctrl.dram.rank1.preEnergy         62124150                       # Energy for precharge commands per rank (pJ)
system.mem_ctrl.dram.rank1.readEnergy       399547260                       # Energy for read commands per rank (pJ)
system.mem_ctrl.dram.rank1.writeEnergy       63924120                       # Energy for write commands per rank (pJ)
system.mem_ctrl.dram.rank1.refreshEnergy 11885293680.000002                       # Energy for refresh commands per rank (pJ)
system.mem_ctrl.dram.rank1.actBackEnergy  16397467590                       # Energy for active background per rank (pJ)
system.mem_ctrl.dram.rank1.preBackEnergy  44007878400                       # Energy for precharge background per rank (pJ)
system.mem_ctrl.dram.rank1.actPowerDownEnergy            0                       # Energy for active power-down per rank (pJ)
system.mem_ctrl.dram.rank1.prePowerDownEnergy            0                       # Energy for precharge power-down per rank (pJ)
system.mem_ctrl.dram.rank1.selfRefreshEnergy            0                       # Energy for self refresh per rank (pJ)
system.mem_ctrl.dram.rank1.totalEnergy    72933124140                       # Total energy per rank (pJ)
system.mem_ctrl.dram.rank1.averagePower    484.402034                       # Core power per rank (mW)
system.mem_ctrl.dram.rank1.totalIdleTime            0                       # Total Idle time Per DRAM Rank
system.mem_ctrl.dram.rank1.pwrStateTime::IDLE 114217944500                       # Time in different power states
system.mem_ctrl.dram.rank1.pwrStateTime::REF   5027620000                       # Time in different power states
system.mem_ctrl.dram.rank1.pwrStateTime::SREF            0                       # Time in different power states
system.mem_ctrl.dram.rank1.pwrStateTime::PRE_PDN            0                       # Time in different power states
system.mem_ctrl.dram.rank1.pwrStateTime::ACT  31317643500                       # Time in different power states
system.mem_ctrl.dram.rank1.pwrStateTime::ACT_PDN            0                       # Time in different power states
system.mem_ctrl.power_state.pwrStateResidencyTicks::UNDEFINED 150563208000                       # Cumulative time (in ticks) in various power states
system.membus.trans_dist::ReadResp             240565                       # Transaction distribution
system.membus.trans_dist::WritebackDirty        35458                       # Transaction distribution
system.membus.trans_dist::CleanEvict           217773                       # Transaction distribution
system.membus.trans_dist::ReadExReq             29081                       # Transaction distribution
system.membus.trans_dist::ReadExResp            29081                       # Transaction distribution
system.membus.trans_dist::ReadSharedReq        240565                       # Transaction distribution
system.membus.pkt_count_system.l2cache.mem_side_port::system.mem_ctrl.port       792523                       # Packet count per connected requestor and responder (bytes)
system.membus.pkt_count_system.l2cache.mem_side_port::total       792523                       # Packet count per connected requestor and responder (bytes)
system.membus.pkt_count::total                 792523                       # Packet count per connected requestor and responder (bytes)
system.membus.pkt_size_system.l2cache.mem_side_port::system.mem_ctrl.port     19526656                       # Cumulative packet size per connected requestor and responder (bytes)
system.membus.pkt_size_system.l2cache.mem_side_port::total     19526656                       # Cumulative packet size per connected requestor and responder (bytes)
system.membus.pkt_size::total                19526656                       # Cumulative packet size per connected requestor and responder (bytes)
system.membus.snoops                                0                       # Total snoops (count)
system.membus.snoopTraffic                          0                       # Total snoop traffic (bytes)
system.membus.snoop_fanout::samples            269646                       # Request fanout histogram
system.membus.snoop_fanout::mean                    0                       # Request fanout histogram
system.membus.snoop_fanout::stdev                   0                       # Request fanout histogram
system.membus.snoop_fanout::underflows              0      0.00%      0.00% # Request fanout histogram
system.membus.snoop_fanout::0                  269646    100.00%    100.00% # Request fanout histogram
system.membus.snoop_fanout::1                       0      0.00%    100.00% # Request fanout histogram
system.membus.snoop_fanout::overflows               0      0.00%    100.00% # Request fanout histogram
system.membus.snoop_fanout::min_value               0                       # Request fanout histogram
system.membus.snoop_fanout::max_value               0                       # Request fanout histogram
system.membus.snoop_fanout::total              269646                       # Request fanout histogram
system.membus.power_state.pwrStateResidencyTicks::UNDEFINED 150563208000                       # Cumulative time (in ticks) in various power states
system.membus.reqLayer2.occupancy           664709000                       # Layer occupancy (ticks)
system.membus.reqLayer2.utilization               0.4                       # Layer utilization (%)
system.membus.respLayer0.occupancy         1422954500                       # Layer occupancy (ticks)
system.membus.respLayer0.utilization              0.9                       # Layer utilization (%)

---------- End Simulation Statistics   ----------
