
---------- Begin Simulation Statistics ----------
final_tick                               128198498000                       # Number of ticks from beginning of simulation (restored from checkpoints and never reset)
host_inst_rate                                 489387                       # Simulator instruction rate (inst/s)
host_mem_usage                                 648352                       # Number of bytes of host memory used
host_op_rate                                   845490                       # Simulator op (including micro ops) rate (op/s)
host_seconds                                    63.68                       # Real time elapsed on the host
host_tick_rate                             2013234551                       # Simulator tick rate (ticks/s)
sim_freq                                 1000000000000                       # Frequency of simulated ticks
sim_insts                                    31163036                       # Number of instructions simulated
sim_ops                                      53838954                       # Number of ops (including micro ops) simulated
sim_seconds                                  0.128198                       # Number of seconds simulated
sim_ticks                                128198498000                       # Number of ticks simulated
system.cpu.Branches                           3147841                       # Number of branches fetched
system.cpu.committedInsts                    31163036                       # Number of instructions committed
system.cpu.committedOps                      53838954                       # Number of ops (including micro ops) committed
system.cpu.idle_fraction                     0.000000                       # Percentage of idle cycles
system.cpu.not_idle_fraction                 1.000000                       # Percentage of non-idle cycles
system.cpu.numCycles                        128198498                       # number of cpu cycles simulated
system.cpu.numWorkItemsCompleted                    0                       # number of work items this cpu completed
system.cpu.numWorkItemsStarted                      0                       # number of work items this cpu started
system.cpu.num_busy_cycles               128198497.999000                       # Number of busy cycles
system.cpu.num_cc_register_reads             14821783                       # number of times the CC registers were read
system.cpu.num_cc_register_writes            15871077                       # number of times the CC registers were written
system.cpu.num_conditional_control_insts      2621491                       # number of instructions that are conditional controls
system.cpu.num_fp_alu_accesses               17960391                       # Number of float alu accesses
system.cpu.num_fp_insts                      17960391                       # number of float instructions
system.cpu.num_fp_register_reads             32379963                       # number of times the floating registers were read
system.cpu.num_fp_register_writes            16583137                       # number of times the floating registers were written
system.cpu.num_func_calls                      525556                       # number of times a function call or return occured
system.cpu.num_idle_cycles                   0.001000                       # Number of idle cycles
system.cpu.num_int_alu_accesses              39665992                       # Number of integer alu accesses
system.cpu.num_int_insts                     39665992                       # number of integer instructions
system.cpu.num_int_register_reads            74188914                       # number of times the integer registers were read
system.cpu.num_int_register_writes           30192723                       # number of times the integer registers were written
system.cpu.num_load_insts                     6721542                       # Number of load instructions
system.cpu.num_mem_refs                      10374028                       # number of memory refs
system.cpu.num_store_insts                    3652486                       # Number of store instructions
system.cpu.num_vec_alu_accesses                     0                       # Number of vector alu accesses
system.cpu.num_vec_insts                            0                       # number of vector instructions
system.cpu.num_vec_register_reads                   0                       # number of times the vector registers were read
system.cpu.num_vec_register_writes                  0                       # number of times the vector registers were written
system.cpu.op_class::No_OpClass                277415      0.52%      0.52% # Class of executed instruction
system.cpu.op_class::IntAlu                  29881491     55.50%     56.02% # Class of executed instruction
system.cpu.op_class::IntMult                       28      0.00%     56.02% # Class of executed instruction
system.cpu.op_class::IntDiv                       182      0.00%     56.02% # Class of executed instruction
system.cpu.op_class::FloatAdd                 1573060      2.92%     58.94% # Class of executed instruction
system.cpu.op_class::FloatCmp                       0      0.00%     58.94% # Class of executed instruction
system.cpu.op_class::FloatCvt                       0      0.00%     58.94% # Class of executed instruction
system.cpu.op_class::FloatMult                      0      0.00%     58.94% # Class of executed instruction
system.cpu.op_class::FloatMultAcc                   0      0.00%     58.94% # Class of executed instruction
system.cpu.op_class::FloatDiv                       0      0.00%     58.94% # Class of executed instruction
system.cpu.op_class::FloatMisc                      0      0.00%     58.94% # Class of executed instruction
system.cpu.op_class::FloatSqrt                      0      0.00%     58.94% # Class of executed instruction
system.cpu.op_class::SimdAdd                    32770      0.06%     59.00% # Class of executed instruction
system.cpu.op_class::SimdAddAcc                     0      0.00%     59.00% # Class of executed instruction
system.cpu.op_class::SimdAlu                  2097654      3.90%     62.90% # Class of executed instruction
system.cpu.op_class::SimdCmp                        6      0.00%     62.90% # Class of executed instruction
system.cpu.op_class::SimdCvt                    33224      0.06%     62.96% # Class of executed instruction
system.cpu.op_class::SimdMisc                 2163418      4.02%     66.98% # Class of executed instruction
system.cpu.op_class::SimdMult                       0      0.00%     66.98% # Class of executed instruction
system.cpu.op_class::SimdMultAcc                    0      0.00%     66.98% # Class of executed instruction
system.cpu.op_class::SimdShift                      6      0.00%     66.98% # Class of executed instruction
system.cpu.op_class::SimdShiftAcc                   0      0.00%     66.98% # Class of executed instruction
system.cpu.op_class::SimdDiv                        0      0.00%     66.98% # Class of executed instruction
system.cpu.op_class::SimdSqrt                       0      0.00%     66.98% # Class of executed instruction
system.cpu.op_class::SimdFloatAdd             1769545      3.29%     70.26% # Class of executed instruction
system.cpu.op_class::SimdFloatAlu                   0      0.00%     70.26% # Class of executed instruction
system.cpu.op_class::SimdFloatCmp                   0      0.00%     70.26% # Class of executed instruction
system.cpu.op_class::SimdFloatCvt             2162696      4.02%     74.28% # Class of executed instruction
system.cpu.op_class::SimdFloatDiv                   2      0.00%     74.28% # Class of executed instruction
system.cpu.op_class::SimdFloatMisc                  0      0.00%     74.28% # Class of executed instruction
system.cpu.op_class::SimdFloatMult            3473479      6.45%     80.73% # Class of executed instruction
system.cpu.op_class::SimdFloatMultAcc               0      0.00%     80.73% # Class of executed instruction
system.cpu.op_class::SimdFloatSqrt                  0      0.00%     80.73% # Class of executed instruction
system.cpu.op_class::SimdReduceAdd                  0      0.00%     80.73% # Class of executed instruction
system.cpu.op_class::SimdReduceAlu                  0      0.00%     80.73% # Class of executed instruction
system.cpu.op_class::SimdReduceCmp                  0      0.00%     80.73% # Class of executed instruction
system.cpu.op_class::SimdFloatReduceAdd             0      0.00%     80.73% # Class of executed instruction
system.cpu.op_class::SimdFloatReduceCmp             0      0.00%     80.73% # Class of executed instruction
system.cpu.op_class::SimdAes                        0      0.00%     80.73% # Class of executed instruction
system.cpu.op_class::SimdAesMix                     0      0.00%     80.73% # Class of executed instruction
system.cpu.op_class::SimdSha1Hash                   0      0.00%     80.73% # Class of executed instruction
system.cpu.op_class::SimdSha1Hash2                  0      0.00%     80.73% # Class of executed instruction
system.cpu.op_class::SimdSha256Hash                 0      0.00%     80.73% # Class of executed instruction
system.cpu.op_class::SimdSha256Hash2                0      0.00%     80.73% # Class of executed instruction
system.cpu.op_class::SimdShaSigma2                  0      0.00%     80.73% # Class of executed instruction
system.cpu.op_class::SimdShaSigma3                  0      0.00%     80.73% # Class of executed instruction
system.cpu.op_class::SimdPredAlu                    0      0.00%     80.73% # Class of executed instruction
system.cpu.op_class::MemRead                  5082682      9.44%     90.17% # Class of executed instruction
system.cpu.op_class::MemWrite                 3389653      6.30%     96.47% # Class of executed instruction
system.cpu.op_class::FloatMemRead             1638860      3.04%     99.51% # Class of executed instruction
system.cpu.op_class::FloatMemWrite             262833      0.49%    100.00% # Class of executed instruction
system.cpu.op_class::IprAccess                      0      0.00%    100.00% # Class of executed instruction
system.cpu.op_class::InstPrefetch                   0      0.00%    100.00% # Class of executed instruction
system.cpu.op_class::total                   53839004                       # Class of executed instruction
system.cpu.workload.numSyscalls                    46                       # Number of system calls
system.l2bus.snoop_filter.hit_multi_requests            0                       # Number of requests hitting in the snoop filter with multiple (>1) holders of the requested data.
system.l2bus.snoop_filter.hit_multi_snoops            0                       # Number of snoops hitting in the snoop filter with multiple (>1) holders of the requested data.
system.l2bus.snoop_filter.hit_single_requests       249850                       # Number of requests hitting in the snoop filter with a single holder of the requested data.
system.l2bus.snoop_filter.hit_single_snoops         2685                       # Number of snoops hitting in the snoop filter with a single holder of the requested data.
system.l2bus.snoop_filter.tot_requests         500979                       # Total number of requests made to the snoop filter.
system.l2bus.snoop_filter.tot_snoops             2685                       # Total number of snoops made to the snoop filter.
system.membus.snoop_filter.hit_multi_requests            0                       # Number of requests hitting in the snoop filter with multiple (>1) holders of the requested data.
system.membus.snoop_filter.hit_multi_snoops            0                       # Number of snoops hitting in the snoop filter with multiple (>1) holders of the requested data.
system.membus.snoop_filter.hit_single_requests       177483                       # Number of requests hitting in the snoop filter with a single holder of the requested data.
system.membus.snoop_filter.hit_single_snoops            0                       # Number of snoops hitting in the snoop filter with a single holder of the requested data.
system.membus.snoop_filter.tot_requests        359152                       # Total number of requests made to the snoop filter.
system.membus.snoop_filter.tot_snoops               0                       # Total number of snoops made to the snoop filter.
system.clk_domain.clock                          1000                       # Clock period in ticks
system.clk_domain.voltage_domain.voltage            1                       # Voltage in Volts
system.cpu.dcache.demand_hits::.cpu.data     10128036                       # number of demand (read+write) hits
system.cpu.dcache.demand_hits::total         10128036                       # number of demand (read+write) hits
system.cpu.dcache.overall_hits::.cpu.data     10128036                       # number of overall hits
system.cpu.dcache.overall_hits::total        10128036                       # number of overall hits
system.cpu.dcache.demand_misses::.cpu.data       250135                       # number of demand (read+write) misses
system.cpu.dcache.demand_misses::total         250135                       # number of demand (read+write) misses
system.cpu.dcache.overall_misses::.cpu.data       250135                       # number of overall misses
system.cpu.dcache.overall_misses::total        250135                       # number of overall misses
system.cpu.dcache.demand_miss_latency::.cpu.data  21142090000                       # number of demand (read+write) miss cycles
system.cpu.dcache.demand_miss_latency::total  21142090000                       # number of demand (read+write) miss cycles
system.cpu.dcache.overall_miss_latency::.cpu.data  21142090000                       # number of overall miss cycles
system.cpu.dcache.overall_miss_latency::total  21142090000                       # number of overall miss cycles
system.cpu.dcache.demand_accesses::.cpu.data     10378171                       # number of demand (read+write) accesses
system.cpu.dcache.demand_accesses::total     10378171                       # number of demand (read+write) accesses
system.cpu.dcache.overall_accesses::.cpu.data     10378171                       # number of overall (read+write) accesses
system.cpu.dcache.overall_accesses::total     10378171                       # number of overall (read+write) accesses
system.cpu.dcache.demand_miss_rate::.cpu.data     0.024102                       # miss rate for demand accesses
system.cpu.dcache.demand_miss_rate::total     0.024102                       # miss rate for demand accesses
system.cpu.dcache.overall_miss_rate::.cpu.data     0.024102                       # miss rate for overall accesses
system.cpu.dcache.overall_miss_rate::total     0.024102                       # miss rate for overall accesses
system.cpu.dcache.demand_avg_miss_latency::.cpu.data 84522.717732                       # average overall miss latency
system.cpu.dcache.demand_avg_miss_latency::total 84522.717732                       # average overall miss latency
system.cpu.dcache.overall_avg_miss_latency::.cpu.data 84522.717732                       # average overall miss latency
system.cpu.dcache.overall_avg_miss_latency::total 84522.717732                       # average overall miss latency
system.cpu.dcache.blocked_cycles::no_mshrs            0                       # number of cycles access was blocked
system.cpu.dcache.blocked_cycles::no_targets            0                       # number of cycles access was blocked
system.cpu.dcache.blocked::no_mshrs                 0                       # number of cycles access was blocked
system.cpu.dcache.blocked::no_targets               0                       # number of cycles access was blocked
system.cpu.dcache.avg_blocked_cycles::no_mshrs          nan                       # average number of cycles each access was blocked
system.cpu.dcache.avg_blocked_cycles::no_targets          nan                       # average number of cycles each access was blocked
system.cpu.dcache.writebacks::.writebacks       126238                       # number of writebacks
system.cpu.dcache.writebacks::total            126238                       # number of writebacks
system.cpu.dcache.demand_mshr_misses::.cpu.data       250135                       # number of demand (read+write) MSHR misses
system.cpu.dcache.demand_mshr_misses::total       250135                       # number of demand (read+write) MSHR misses
system.cpu.dcache.overall_mshr_misses::.cpu.data       250135                       # number of overall MSHR misses
system.cpu.dcache.overall_mshr_misses::total       250135                       # number of overall MSHR misses
system.cpu.dcache.demand_mshr_miss_latency::.cpu.data  20641820000                       # number of demand (read+write) MSHR miss cycles
system.cpu.dcache.demand_mshr_miss_latency::total  20641820000                       # number of demand (read+write) MSHR miss cycles
system.cpu.dcache.overall_mshr_miss_latency::.cpu.data  20641820000                       # number of overall MSHR miss cycles
system.cpu.dcache.overall_mshr_miss_latency::total  20641820000                       # number of overall MSHR miss cycles
system.cpu.dcache.demand_mshr_miss_rate::.cpu.data     0.024102                       # mshr miss rate for demand accesses
system.cpu.dcache.demand_mshr_miss_rate::total     0.024102                       # mshr miss rate for demand accesses
system.cpu.dcache.overall_mshr_miss_rate::.cpu.data     0.024102                       # mshr miss rate for overall accesses
system.cpu.dcache.overall_mshr_miss_rate::total     0.024102                       # mshr miss rate for overall accesses
system.cpu.dcache.demand_avg_mshr_miss_latency::.cpu.data 82522.717732                       # average overall mshr miss latency
system.cpu.dcache.demand_avg_mshr_miss_latency::total 82522.717732                       # average overall mshr miss latency
system.cpu.dcache.overall_avg_mshr_miss_latency::.cpu.data 82522.717732                       # average overall mshr miss latency
system.cpu.dcache.overall_avg_mshr_miss_latency::total 82522.717732                       # average overall mshr miss latency
system.cpu.dcache.replacements                 249111                       # number of replacements
system.cpu.dcache.ReadReq_hits::.cpu.data      6579488                       # number of ReadReq hits
system.cpu.dcache.ReadReq_hits::total         6579488                       # number of ReadReq hits
system.cpu.dcache.ReadReq_misses::.cpu.data       146176                       # number of ReadReq misses
system.cpu.dcache.ReadReq_misses::total        146176                       # number of ReadReq misses
system.cpu.dcache.ReadReq_miss_latency::.cpu.data  13269407000                       # number of ReadReq miss cycles
system.cpu.dcache.ReadReq_miss_latency::total  13269407000                       # number of ReadReq miss cycles
system.cpu.dcache.ReadReq_accesses::.cpu.data      6725664                       # number of ReadReq accesses(hits+misses)
system.cpu.dcache.ReadReq_accesses::total      6725664                       # number of ReadReq accesses(hits+misses)
system.cpu.dcache.ReadReq_miss_rate::.cpu.data     0.021734                       # miss rate for ReadReq accesses
system.cpu.dcache.ReadReq_miss_rate::total     0.021734                       # miss rate for ReadReq accesses
system.cpu.dcache.ReadReq_avg_miss_latency::.cpu.data 90776.919604                       # average ReadReq miss latency
system.cpu.dcache.ReadReq_avg_miss_latency::total 90776.919604                       # average ReadReq miss latency
system.cpu.dcache.ReadReq_mshr_misses::.cpu.data       146176                       # number of ReadReq MSHR misses
system.cpu.dcache.ReadReq_mshr_misses::total       146176                       # number of ReadReq MSHR misses
system.cpu.dcache.ReadReq_mshr_miss_latency::.cpu.data  12977055000                       # number of ReadReq MSHR miss cycles
system.cpu.dcache.ReadReq_mshr_miss_latency::total  12977055000                       # number of ReadReq MSHR miss cycles
system.cpu.dcache.ReadReq_mshr_miss_rate::.cpu.data     0.021734                       # mshr miss rate for ReadReq accesses
system.cpu.dcache.ReadReq_mshr_miss_rate::total     0.021734                       # mshr miss rate for ReadReq accesses
system.cpu.dcache.ReadReq_avg_mshr_miss_latency::.cpu.data 88776.919604                       # average ReadReq mshr miss latency
system.cpu.dcache.ReadReq_avg_mshr_miss_latency::total 88776.919604                       # average ReadReq mshr miss latency
system.cpu.dcache.WriteReq_hits::.cpu.data      3548548                       # number of WriteReq hits
system.cpu.dcache.WriteReq_hits::total        3548548                       # number of WriteReq hits
system.cpu.dcache.WriteReq_misses::.cpu.data       103959                       # number of WriteReq misses
system.cpu.dcache.WriteReq_misses::total       103959                       # number of WriteReq misses
system.cpu.dcache.WriteReq_miss_latency::.cpu.data   7872683000                       # number of WriteReq miss cycles
system.cpu.dcache.WriteReq_miss_latency::total   7872683000                       # number of WriteReq miss cycles
system.cpu.dcache.WriteReq_accesses::.cpu.data      3652507                       # number of WriteReq accesses(hits+misses)
system.cpu.dcache.WriteReq_accesses::total      3652507                       # number of WriteReq accesses(hits+misses)
system.cpu.dcache.WriteReq_miss_rate::.cpu.data     0.028462                       # miss rate for WriteReq accesses
system.cpu.dcache.WriteReq_miss_rate::total     0.028462                       # miss rate for WriteReq accesses
system.cpu.dcache.WriteReq_avg_miss_latency::.cpu.data 75728.729595                       # average WriteReq miss latency
system.cpu.dcache.WriteReq_avg_miss_latency::total 75728.729595                       # average WriteReq miss latency
system.cpu.dcache.WriteReq_mshr_misses::.cpu.data       103959                       # number of WriteReq MSHR misses
system.cpu.dcache.WriteReq_mshr_misses::total       103959                       # number of WriteReq MSHR misses
system.cpu.dcache.WriteReq_mshr_miss_latency::.cpu.data   7664765000                       # number of WriteReq MSHR miss cycles
system.cpu.dcache.WriteReq_mshr_miss_latency::total   7664765000                       # number of WriteReq MSHR miss cycles
system.cpu.dcache.WriteReq_mshr_miss_rate::.cpu.data     0.028462                       # mshr miss rate for WriteReq accesses
system.cpu.dcache.WriteReq_mshr_miss_rate::total     0.028462                       # mshr miss rate for WriteReq accesses
system.cpu.dcache.WriteReq_avg_mshr_miss_latency::.cpu.data 73728.729595                       # average WriteReq mshr miss latency
system.cpu.dcache.WriteReq_avg_mshr_miss_latency::total 73728.729595                       # average WriteReq mshr miss latency
system.cpu.dcache.power_state.pwrStateResidencyTicks::UNDEFINED 128198498000                       # Cumulative time (in ticks) in various power states
system.cpu.dcache.tags.tagsinuse           994.259230                       # Cycle average of tags in use
system.cpu.dcache.tags.total_refs            10378171                       # Total number of references to valid blocks.
system.cpu.dcache.tags.sampled_refs            250135                       # Sample count of references to valid blocks.
system.cpu.dcache.tags.avg_refs             41.490279                       # Average number of references to valid blocks.
system.cpu.dcache.tags.warmup_cycle            224000                       # Cycle when the warmup percentage was hit.
system.cpu.dcache.tags.occ_blocks::.cpu.data   994.259230                       # Average occupied blocks per requestor
system.cpu.dcache.tags.occ_percent::.cpu.data     0.970956                       # Average percentage of cache occupancy
system.cpu.dcache.tags.occ_percent::total     0.970956                       # Average percentage of cache occupancy
system.cpu.dcache.tags.occ_task_id_blocks::1024         1024                       # Occupied blocks per task id
system.cpu.dcache.tags.age_task_id_blocks_1024::0           20                       # Occupied blocks per task id
system.cpu.dcache.tags.age_task_id_blocks_1024::1           42                       # Occupied blocks per task id
system.cpu.dcache.tags.age_task_id_blocks_1024::2          962                       # Occupied blocks per task id
system.cpu.dcache.tags.occ_task_id_percent::1024            1                       # Percentage of cache occupancy per task id
system.cpu.dcache.tags.tag_accesses          21006477                       # Number of tag accesses
system.cpu.dcache.tags.data_accesses         21006477                       # Number of data accesses
system.cpu.dcache.tags.power_state.pwrStateResidencyTicks::UNDEFINED 128198498000                       # Cumulative time (in ticks) in various power states
system.cpu.dtb.rdAccesses                     6725665                       # TLB accesses on read requests
system.cpu.dtb.wrAccesses                     3652510                       # TLB accesses on write requests
system.cpu.dtb.rdMisses                          1853                       # TLB misses on read requests
system.cpu.dtb.wrMisses                         35717                       # TLB misses on write requests
system.cpu.dtb.walker.power_state.pwrStateResidencyTicks::UNDEFINED 128198498000                       # Cumulative time (in ticks) in various power states
system.cpu.icache.demand_hits::.cpu.inst     43359491                       # number of demand (read+write) hits
system.cpu.icache.demand_hits::total         43359491                       # number of demand (read+write) hits
system.cpu.icache.overall_hits::.cpu.inst     43359491                       # number of overall hits
system.cpu.icache.overall_hits::total        43359491                       # number of overall hits
system.cpu.icache.demand_misses::.cpu.inst          994                       # number of demand (read+write) misses
system.cpu.icache.demand_misses::total            994                       # number of demand (read+write) misses
system.cpu.icache.overall_misses::.cpu.inst          994                       # number of overall misses
system.cpu.icache.overall_misses::total           994                       # number of overall misses
system.cpu.icache.demand_miss_latency::.cpu.inst     89710000                       # number of demand (read+write) miss cycles
system.cpu.icache.demand_miss_latency::total     89710000                       # number of demand (read+write) miss cycles
system.cpu.icache.overall_miss_latency::.cpu.inst     89710000                       # number of overall miss cycles
system.cpu.icache.overall_miss_latency::total     89710000                       # number of overall miss cycles
system.cpu.icache.demand_accesses::.cpu.inst     43360485                       # number of demand (read+write) accesses
system.cpu.icache.demand_accesses::total     43360485                       # number of demand (read+write) accesses
system.cpu.icache.overall_accesses::.cpu.inst     43360485                       # number of overall (read+write) accesses
system.cpu.icache.overall_accesses::total     43360485                       # number of overall (read+write) accesses
system.cpu.icache.demand_miss_rate::.cpu.inst     0.000023                       # miss rate for demand accesses
system.cpu.icache.demand_miss_rate::total     0.000023                       # miss rate for demand accesses
system.cpu.icache.overall_miss_rate::.cpu.inst     0.000023                       # miss rate for overall accesses
system.cpu.icache.overall_miss_rate::total     0.000023                       # miss rate for overall accesses
system.cpu.icache.demand_avg_miss_latency::.cpu.inst 90251.509054                       # average overall miss latency
system.cpu.icache.demand_avg_miss_latency::total 90251.509054                       # average overall miss latency
system.cpu.icache.overall_avg_miss_latency::.cpu.inst 90251.509054                       # average overall miss latency
system.cpu.icache.overall_avg_miss_latency::total 90251.509054                       # average overall miss latency
system.cpu.icache.blocked_cycles::no_mshrs            0                       # number of cycles access was blocked
system.cpu.icache.blocked_cycles::no_targets            0                       # number of cycles access was blocked
system.cpu.icache.blocked::no_mshrs                 0                       # number of cycles access was blocked
system.cpu.icache.blocked::no_targets               0                       # number of cycles access was blocked
system.cpu.icache.avg_blocked_cycles::no_mshrs          nan                       # average number of cycles each access was blocked
system.cpu.icache.avg_blocked_cycles::no_targets          nan                       # average number of cycles each access was blocked
system.cpu.icache.demand_mshr_misses::.cpu.inst          994                       # number of demand (read+write) MSHR misses
system.cpu.icache.demand_mshr_misses::total          994                       # number of demand (read+write) MSHR misses
system.cpu.icache.overall_mshr_misses::.cpu.inst          994                       # number of overall MSHR misses
system.cpu.icache.overall_mshr_misses::total          994                       # number of overall MSHR misses
system.cpu.icache.demand_mshr_miss_latency::.cpu.inst     87722000                       # number of demand (read+write) MSHR miss cycles
system.cpu.icache.demand_mshr_miss_latency::total     87722000                       # number of demand (read+write) MSHR miss cycles
system.cpu.icache.overall_mshr_miss_latency::.cpu.inst     87722000                       # number of overall MSHR miss cycles
system.cpu.icache.overall_mshr_miss_latency::total     87722000                       # number of overall MSHR miss cycles
system.cpu.icache.demand_mshr_miss_rate::.cpu.inst     0.000023                       # mshr miss rate for demand accesses
system.cpu.icache.demand_mshr_miss_rate::total     0.000023                       # mshr miss rate for demand accesses
system.cpu.icache.overall_mshr_miss_rate::.cpu.inst     0.000023                       # mshr miss rate for overall accesses
system.cpu.icache.overall_mshr_miss_rate::total     0.000023                       # mshr miss rate for overall accesses
system.cpu.icache.demand_avg_mshr_miss_latency::.cpu.inst 88251.509054                       # average overall mshr miss latency
system.cpu.icache.demand_avg_mshr_miss_latency::total 88251.509054                       # average overall mshr miss latency
system.cpu.icache.overall_avg_mshr_miss_latency::.cpu.inst 88251.509054                       # average overall mshr miss latency
system.cpu.icache.overall_avg_mshr_miss_latency::total 88251.509054                       # average overall mshr miss latency
system.cpu.icache.replacements                    739                       # number of replacements
system.cpu.icache.ReadReq_hits::.cpu.inst     43359491                       # number of ReadReq hits
system.cpu.icache.ReadReq_hits::total        43359491                       # number of ReadReq hits
system.cpu.icache.ReadReq_misses::.cpu.inst          994                       # number of ReadReq misses
system.cpu.icache.ReadReq_misses::total           994                       # number of ReadReq misses
system.cpu.icache.ReadReq_miss_latency::.cpu.inst     89710000                       # number of ReadReq miss cycles
system.cpu.icache.ReadReq_miss_latency::total     89710000                       # number of ReadReq miss cycles
system.cpu.icache.ReadReq_accesses::.cpu.inst     43360485                       # number of ReadReq accesses(hits+misses)
system.cpu.icache.ReadReq_accesses::total     43360485                       # number of ReadReq accesses(hits+misses)
system.cpu.icache.ReadReq_miss_rate::.cpu.inst     0.000023                       # miss rate for ReadReq accesses
system.cpu.icache.ReadReq_miss_rate::total     0.000023                       # miss rate for ReadReq accesses
system.cpu.icache.ReadReq_avg_miss_latency::.cpu.inst 90251.509054                       # average ReadReq miss latency
system.cpu.icache.ReadReq_avg_miss_latency::total 90251.509054                       # average ReadReq miss latency
system.cpu.icache.ReadReq_mshr_misses::.cpu.inst          994                       # number of ReadReq MSHR misses
system.cpu.icache.ReadReq_mshr_misses::total          994                       # number of ReadReq MSHR misses
system.cpu.icache.ReadReq_mshr_miss_latency::.cpu.inst     87722000                       # number of ReadReq MSHR miss cycles
system.cpu.icache.ReadReq_mshr_miss_latency::total     87722000                       # number of ReadReq MSHR miss cycles
system.cpu.icache.ReadReq_mshr_miss_rate::.cpu.inst     0.000023                       # mshr miss rate for ReadReq accesses
system.cpu.icache.ReadReq_mshr_miss_rate::total     0.000023                       # mshr miss rate for ReadReq accesses
system.cpu.icache.ReadReq_avg_mshr_miss_latency::.cpu.inst 88251.509054                       # average ReadReq mshr miss latency
system.cpu.icache.ReadReq_avg_mshr_miss_latency::total 88251.509054                       # average ReadReq mshr miss latency
system.cpu.icache.power_state.pwrStateResidencyTicks::UNDEFINED 128198498000                       # Cumulative time (in ticks) in various power states
system.cpu.icache.tags.tagsinuse           253.914468                       # Cycle average of tags in use
system.cpu.icache.tags.total_refs            43360485                       # Total number of references to valid blocks.
system.cpu.icache.tags.sampled_refs               994                       # Sample count of references to valid blocks.
system.cpu.icache.tags.avg_refs          43622.218310                       # Average number of references to valid blocks.
system.cpu.icache.tags.warmup_cycle            107000                       # Cycle when the warmup percentage was hit.
system.cpu.icache.tags.occ_blocks::.cpu.inst   253.914468                       # Average occupied blocks per requestor
system.cpu.icache.tags.occ_percent::.cpu.inst     0.991853                       # Average percentage of cache occupancy
system.cpu.icache.tags.occ_percent::total     0.991853                       # Average percentage of cache occupancy
system.cpu.icache.tags.occ_task_id_blocks::1024          255                       # Occupied blocks per task id
system.cpu.icache.tags.age_task_id_blocks_1024::0           52                       # Occupied blocks per task id
system.cpu.icache.tags.age_task_id_blocks_1024::1          119                       # Occupied blocks per task id
system.cpu.icache.tags.age_task_id_blocks_1024::2            9                       # Occupied blocks per task id
system.cpu.icache.tags.age_task_id_blocks_1024::3            1                       # Occupied blocks per task id
system.cpu.icache.tags.age_task_id_blocks_1024::4           74                       # Occupied blocks per task id
system.cpu.icache.tags.occ_task_id_percent::1024     0.996094                       # Percentage of cache occupancy per task id
system.cpu.icache.tags.tag_accesses          86721964                       # Number of tag accesses
system.cpu.icache.tags.data_accesses         86721964                       # Number of data accesses
system.cpu.icache.tags.power_state.pwrStateResidencyTicks::UNDEFINED 128198498000                       # Cumulative time (in ticks) in various power states
system.cpu.interrupts.clk_domain.clock          16000                       # Clock period in ticks
system.cpu.itb.rdAccesses                           0                       # TLB accesses on read requests
system.cpu.itb.wrAccesses                    43360485                       # TLB accesses on write requests
system.cpu.itb.rdMisses                             0                       # TLB misses on read requests
system.cpu.itb.wrMisses                            59                       # TLB misses on write requests
system.cpu.itb.walker.power_state.pwrStateResidencyTicks::UNDEFINED 128198498000                       # Cumulative time (in ticks) in various power states
system.cpu.power_state.pwrStateResidencyTicks::ON 128198498000                       # Cumulative time (in ticks) in various power states
system.cpu.thread_0.numInsts                        0                       # Number of Instructions committed
system.cpu.thread_0.numOps                          0                       # Number of Ops committed
system.cpu.thread_0.numMemRefs                      0                       # Number of Memory References
system.l2bus.trans_dist::ReadResp              147170                       # Transaction distribution
system.l2bus.trans_dist::WritebackDirty        185522                       # Transaction distribution
system.l2bus.trans_dist::CleanEvict            243109                       # Transaction distribution
system.l2bus.trans_dist::ReadExReq             103959                       # Transaction distribution
system.l2bus.trans_dist::ReadExResp            103959                       # Transaction distribution
system.l2bus.trans_dist::ReadSharedReq         147170                       # Transaction distribution
system.l2bus.pkt_count_system.cpu.icache.mem_side_port::system.l2cache.cpu_side_port         2727                       # Packet count per connected requestor and responder (bytes)
system.l2bus.pkt_count_system.cpu.dcache.mem_side_port::system.l2cache.cpu_side_port       749381                       # Packet count per connected requestor and responder (bytes)
system.l2bus.pkt_count::total                  752108                       # Packet count per connected requestor and responder (bytes)
system.l2bus.pkt_size_system.cpu.icache.mem_side_port::system.l2cache.cpu_side_port        63616                       # Cumulative packet size per connected requestor and responder (bytes)
system.l2bus.pkt_size_system.cpu.dcache.mem_side_port::system.l2cache.cpu_side_port     24087872                       # Cumulative packet size per connected requestor and responder (bytes)
system.l2bus.pkt_size::total                 24151488                       # Cumulative packet size per connected requestor and responder (bytes)
system.l2bus.snoops                            178781                       # Total snoops (count)
system.l2bus.snoopTraffic                     3794176                       # Total snoop traffic (bytes)
system.l2bus.snoop_fanout::samples             429910                       # Request fanout histogram
system.l2bus.snoop_fanout::mean              0.006245                       # Request fanout histogram
system.l2bus.snoop_fanout::stdev             0.078781                       # Request fanout histogram
system.l2bus.snoop_fanout::underflows               0      0.00%      0.00% # Request fanout histogram
system.l2bus.snoop_fanout::0                   427225     99.38%     99.38% # Request fanout histogram
system.l2bus.snoop_fanout::1                     2685      0.62%    100.00% # Request fanout histogram
system.l2bus.snoop_fanout::2                        0      0.00%    100.00% # Request fanout histogram
system.l2bus.snoop_fanout::overflows                0      0.00%    100.00% # Request fanout histogram
system.l2bus.snoop_fanout::min_value                0                       # Request fanout histogram
system.l2bus.snoop_fanout::max_value                1                       # Request fanout histogram
system.l2bus.snoop_fanout::total               429910                       # Request fanout histogram
system.l2bus.power_state.pwrStateResidencyTicks::UNDEFINED 128198498000                       # Cumulative time (in ticks) in various power states
system.l2bus.reqLayer0.occupancy            753455000                       # Layer occupancy (ticks)
system.l2bus.reqLayer0.utilization                0.6                       # Layer utilization (%)
system.l2bus.respLayer0.occupancy             2982000                       # Layer occupancy (ticks)
system.l2bus.respLayer0.utilization               0.0                       # Layer utilization (%)
system.l2bus.respLayer1.occupancy           750405000                       # Layer occupancy (ticks)
system.l2bus.respLayer1.utilization               0.6                       # Layer utilization (%)
system.l2cache.demand_hits::.cpu.inst             163                       # number of demand (read+write) hits
system.l2cache.demand_hits::.cpu.data           69297                       # number of demand (read+write) hits
system.l2cache.demand_hits::total               69460                       # number of demand (read+write) hits
system.l2cache.overall_hits::.cpu.inst            163                       # number of overall hits
system.l2cache.overall_hits::.cpu.data          69297                       # number of overall hits
system.l2cache.overall_hits::total              69460                       # number of overall hits
system.l2cache.demand_misses::.cpu.inst           831                       # number of demand (read+write) misses
system.l2cache.demand_misses::.cpu.data        180838                       # number of demand (read+write) misses
system.l2cache.demand_misses::total            181669                       # number of demand (read+write) misses
system.l2cache.overall_misses::.cpu.inst          831                       # number of overall misses
system.l2cache.overall_misses::.cpu.data       180838                       # number of overall misses
system.l2cache.overall_misses::total           181669                       # number of overall misses
system.l2cache.demand_miss_latency::.cpu.inst     81317000                       # number of demand (read+write) miss cycles
system.l2cache.demand_miss_latency::.cpu.data  18435605000                       # number of demand (read+write) miss cycles
system.l2cache.demand_miss_latency::total  18516922000                       # number of demand (read+write) miss cycles
system.l2cache.overall_miss_latency::.cpu.inst     81317000                       # number of overall miss cycles
system.l2cache.overall_miss_latency::.cpu.data  18435605000                       # number of overall miss cycles
system.l2cache.overall_miss_latency::total  18516922000                       # number of overall miss cycles
system.l2cache.demand_accesses::.cpu.inst          994                       # number of demand (read+write) accesses
system.l2cache.demand_accesses::.cpu.data       250135                       # number of demand (read+write) accesses
system.l2cache.demand_accesses::total          251129                       # number of demand (read+write) accesses
system.l2cache.overall_accesses::.cpu.inst          994                       # number of overall (read+write) accesses
system.l2cache.overall_accesses::.cpu.data       250135                       # number of overall (read+write) accesses
system.l2cache.overall_accesses::total         251129                       # number of overall (read+write) accesses
system.l2cache.demand_miss_rate::.cpu.inst     0.836016                       # miss rate for demand accesses
system.l2cache.demand_miss_rate::.cpu.data     0.722962                       # miss rate for demand accesses
system.l2cache.demand_miss_rate::total       0.723409                       # miss rate for demand accesses
system.l2cache.overall_miss_rate::.cpu.inst     0.836016                       # miss rate for overall accesses
system.l2cache.overall_miss_rate::.cpu.data     0.722962                       # miss rate for overall accesses
system.l2cache.overall_miss_rate::total      0.723409                       # miss rate for overall accesses
system.l2cache.demand_avg_miss_latency::.cpu.inst 97854.392298                       # average overall miss latency
system.l2cache.demand_avg_miss_latency::.cpu.data 101945.415234                       # average overall miss latency
system.l2cache.demand_avg_miss_latency::total 101926.701859                       # average overall miss latency
system.l2cache.overall_avg_miss_latency::.cpu.inst 97854.392298                       # average overall miss latency
system.l2cache.overall_avg_miss_latency::.cpu.data 101945.415234                       # average overall miss latency
system.l2cache.overall_avg_miss_latency::total 101926.701859                       # average overall miss latency
system.l2cache.blocked_cycles::no_mshrs             0                       # number of cycles access was blocked
system.l2cache.blocked_cycles::no_targets            0                       # number of cycles access was blocked
system.l2cache.blocked::no_mshrs                    0                       # number of cycles access was blocked
system.l2cache.blocked::no_targets                  0                       # number of cycles access was blocked
system.l2cache.avg_blocked_cycles::no_mshrs          nan                       # average number of cycles each access was blocked
system.l2cache.avg_blocked_cycles::no_targets          nan                       # average number of cycles each access was blocked
system.l2cache.writebacks::.writebacks          59284                       # number of writebacks
system.l2cache.writebacks::total                59284                       # number of writebacks
system.l2cache.demand_mshr_misses::.cpu.inst          831                       # number of demand (read+write) MSHR misses
system.l2cache.demand_mshr_misses::.cpu.data       180838                       # number of demand (read+write) MSHR misses
system.l2cache.demand_mshr_misses::total       181669                       # number of demand (read+write) MSHR misses
system.l2cache.overall_mshr_misses::.cpu.inst          831                       # number of overall MSHR misses
system.l2cache.overall_mshr_misses::.cpu.data       180838                       # number of overall MSHR misses
system.l2cache.overall_mshr_misses::total       181669                       # number of overall MSHR misses
system.l2cache.demand_mshr_miss_latency::.cpu.inst     64697000                       # number of demand (read+write) MSHR miss cycles
system.l2cache.demand_mshr_miss_latency::.cpu.data  14818845000                       # number of demand (read+write) MSHR miss cycles
system.l2cache.demand_mshr_miss_latency::total  14883542000                       # number of demand (read+write) MSHR miss cycles
system.l2cache.overall_mshr_miss_latency::.cpu.inst     64697000                       # number of overall MSHR miss cycles
system.l2cache.overall_mshr_miss_latency::.cpu.data  14818845000                       # number of overall MSHR miss cycles
system.l2cache.overall_mshr_miss_latency::total  14883542000                       # number of overall MSHR miss cycles
system.l2cache.demand_mshr_miss_rate::.cpu.inst     0.836016                       # mshr miss rate for demand accesses
system.l2cache.demand_mshr_miss_rate::.cpu.data     0.722962                       # mshr miss rate for demand accesses
system.l2cache.demand_mshr_miss_rate::total     0.723409                       # mshr miss rate for demand accesses
system.l2cache.overall_mshr_miss_rate::.cpu.inst     0.836016                       # mshr miss rate for overall accesses
system.l2cache.overall_mshr_miss_rate::.cpu.data     0.722962                       # mshr miss rate for overall accesses
system.l2cache.overall_mshr_miss_rate::total     0.723409                       # mshr miss rate for overall accesses
system.l2cache.demand_avg_mshr_miss_latency::.cpu.inst 77854.392298                       # average overall mshr miss latency
system.l2cache.demand_avg_mshr_miss_latency::.cpu.data 81945.415234                       # average overall mshr miss latency
system.l2cache.demand_avg_mshr_miss_latency::total 81926.701859                       # average overall mshr miss latency
system.l2cache.overall_avg_mshr_miss_latency::.cpu.inst 77854.392298                       # average overall mshr miss latency
system.l2cache.overall_avg_mshr_miss_latency::.cpu.data 81945.415234                       # average overall mshr miss latency
system.l2cache.overall_avg_mshr_miss_latency::total 81926.701859                       # average overall mshr miss latency
system.l2cache.replacements                    177053                       # number of replacements
system.l2cache.WritebackDirty_hits::.writebacks       126225                       # number of WritebackDirty hits
system.l2cache.WritebackDirty_hits::total       126225                       # number of WritebackDirty hits
system.l2cache.WritebackDirty_misses::.writebacks           13                       # number of WritebackDirty misses
system.l2cache.WritebackDirty_misses::total           13                       # number of WritebackDirty misses
system.l2cache.WritebackDirty_accesses::.writebacks       126238                       # number of WritebackDirty accesses(hits+misses)
system.l2cache.WritebackDirty_accesses::total       126238                       # number of WritebackDirty accesses(hits+misses)
system.l2cache.WritebackDirty_miss_rate::.writebacks     0.000103                       # miss rate for WritebackDirty accesses
system.l2cache.WritebackDirty_miss_rate::total     0.000103                       # miss rate for WritebackDirty accesses
system.l2cache.WritebackDirty_mshr_misses::.writebacks           13                       # number of WritebackDirty MSHR misses
system.l2cache.WritebackDirty_mshr_misses::total           13                       # number of WritebackDirty MSHR misses
system.l2cache.WritebackDirty_mshr_miss_rate::.writebacks     0.000103                       # mshr miss rate for WritebackDirty accesses
system.l2cache.WritebackDirty_mshr_miss_rate::total     0.000103                       # mshr miss rate for WritebackDirty accesses
system.l2cache.CleanEvict_mshr_misses::.writebacks         1374                       # number of CleanEvict MSHR misses
system.l2cache.CleanEvict_mshr_misses::total         1374                       # number of CleanEvict MSHR misses
system.l2cache.CleanEvict_mshr_miss_rate::.writebacks          inf                       # mshr miss rate for CleanEvict accesses
system.l2cache.CleanEvict_mshr_miss_rate::total          inf                       # mshr miss rate for CleanEvict accesses
system.l2cache.ReadExReq_hits::.cpu.data        45051                       # number of ReadExReq hits
system.l2cache.ReadExReq_hits::total            45051                       # number of ReadExReq hits
system.l2cache.ReadExReq_misses::.cpu.data        58908                       # number of ReadExReq misses
system.l2cache.ReadExReq_misses::total          58908                       # number of ReadExReq misses
system.l2cache.ReadExReq_miss_latency::.cpu.data   6406751000                       # number of ReadExReq miss cycles
system.l2cache.ReadExReq_miss_latency::total   6406751000                       # number of ReadExReq miss cycles
system.l2cache.ReadExReq_accesses::.cpu.data       103959                       # number of ReadExReq accesses(hits+misses)
system.l2cache.ReadExReq_accesses::total       103959                       # number of ReadExReq accesses(hits+misses)
system.l2cache.ReadExReq_miss_rate::.cpu.data     0.566646                       # miss rate for ReadExReq accesses
system.l2cache.ReadExReq_miss_rate::total     0.566646                       # miss rate for ReadExReq accesses
system.l2cache.ReadExReq_avg_miss_latency::.cpu.data 108758.589665                       # average ReadExReq miss latency
system.l2cache.ReadExReq_avg_miss_latency::total 108758.589665                       # average ReadExReq miss latency
system.l2cache.ReadExReq_mshr_misses::.cpu.data        58908                       # number of ReadExReq MSHR misses
system.l2cache.ReadExReq_mshr_misses::total        58908                       # number of ReadExReq MSHR misses
system.l2cache.ReadExReq_mshr_miss_latency::.cpu.data   5228591000                       # number of ReadExReq MSHR miss cycles
system.l2cache.ReadExReq_mshr_miss_latency::total   5228591000                       # number of ReadExReq MSHR miss cycles
system.l2cache.ReadExReq_mshr_miss_rate::.cpu.data     0.566646                       # mshr miss rate for ReadExReq accesses
system.l2cache.ReadExReq_mshr_miss_rate::total     0.566646                       # mshr miss rate for ReadExReq accesses
system.l2cache.ReadExReq_avg_mshr_miss_latency::.cpu.data 88758.589665                       # average ReadExReq mshr miss latency
system.l2cache.ReadExReq_avg_mshr_miss_latency::total 88758.589665                       # average ReadExReq mshr miss latency
system.l2cache.ReadSharedReq_hits::.cpu.inst          163                       # number of ReadSharedReq hits
system.l2cache.ReadSharedReq_hits::.cpu.data        24246                       # number of ReadSharedReq hits
system.l2cache.ReadSharedReq_hits::total        24409                       # number of ReadSharedReq hits
system.l2cache.ReadSharedReq_misses::.cpu.inst          831                       # number of ReadSharedReq misses
system.l2cache.ReadSharedReq_misses::.cpu.data       121930                       # number of ReadSharedReq misses
system.l2cache.ReadSharedReq_misses::total       122761                       # number of ReadSharedReq misses
system.l2cache.ReadSharedReq_miss_latency::.cpu.inst     81317000                       # number of ReadSharedReq miss cycles
system.l2cache.ReadSharedReq_miss_latency::.cpu.data  12028854000                       # number of ReadSharedReq miss cycles
system.l2cache.ReadSharedReq_miss_latency::total  12110171000                       # number of ReadSharedReq miss cycles
system.l2cache.ReadSharedReq_accesses::.cpu.inst          994                       # number of ReadSharedReq accesses(hits+misses)
system.l2cache.ReadSharedReq_accesses::.cpu.data       146176                       # number of ReadSharedReq accesses(hits+misses)
system.l2cache.ReadSharedReq_accesses::total       147170                       # number of ReadSharedReq accesses(hits+misses)
system.l2cache.ReadSharedReq_miss_rate::.cpu.inst     0.836016                       # miss rate for ReadSharedReq accesses
system.l2cache.ReadSharedReq_miss_rate::.cpu.data     0.834131                       # miss rate for ReadSharedReq accesses
system.l2cache.ReadSharedReq_miss_rate::total     0.834144                       # miss rate for ReadSharedReq accesses
system.l2cache.ReadSharedReq_avg_miss_latency::.cpu.inst 97854.392298                       # average ReadSharedReq miss latency
system.l2cache.ReadSharedReq_avg_miss_latency::.cpu.data 98653.768556                       # average ReadSharedReq miss latency
system.l2cache.ReadSharedReq_avg_miss_latency::total 98648.357377                       # average ReadSharedReq miss latency
system.l2cache.ReadSharedReq_mshr_misses::.cpu.inst          831                       # number of ReadSharedReq MSHR misses
system.l2cache.ReadSharedReq_mshr_misses::.cpu.data       121930                       # number of ReadSharedReq MSHR misses
system.l2cache.ReadSharedReq_mshr_misses::total       122761                       # number of ReadSharedReq MSHR misses
system.l2cache.ReadSharedReq_mshr_miss_latency::.cpu.inst     64697000                       # number of ReadSharedReq MSHR miss cycles
system.l2cache.ReadSharedReq_mshr_miss_latency::.cpu.data   9590254000                       # number of ReadSharedReq MSHR miss cycles
system.l2cache.ReadSharedReq_mshr_miss_latency::total   9654951000                       # number of ReadSharedReq MSHR miss cycles
system.l2cache.ReadSharedReq_mshr_miss_rate::.cpu.inst     0.836016                       # mshr miss rate for ReadSharedReq accesses
system.l2cache.ReadSharedReq_mshr_miss_rate::.cpu.data     0.834131                       # mshr miss rate for ReadSharedReq accesses
system.l2cache.ReadSharedReq_mshr_miss_rate::total     0.834144                       # mshr miss rate for ReadSharedReq accesses
system.l2cache.ReadSharedReq_avg_mshr_miss_latency::.cpu.inst 77854.392298                       # average ReadSharedReq mshr miss latency
system.l2cache.ReadSharedReq_avg_mshr_miss_latency::.cpu.data 78653.768556                       # average ReadSharedReq mshr miss latency
system.l2cache.ReadSharedReq_avg_mshr_miss_latency::total 78648.357377                       # average ReadSharedReq mshr miss latency
system.l2cache.power_state.pwrStateResidencyTicks::UNDEFINED 128198498000                       # Cumulative time (in ticks) in various power states
system.l2cache.replacement_policy.totalBypasses         1741                       # Total number of cache bypasses
system.l2cache.replacement_policy.effectiveBypasses          112                       # Bypasses that correctly skipped non-reused blocks
system.l2cache.replacement_policy.ineffectiveBypasses          162                       # Bypasses that incorrectly skipped requested blocks
system.l2cache.replacement_policy.virtualEffectiveBypasses          940                       # Virtual bypasses correctly predicting non-reused blocks
system.l2cache.replacement_policy.virtualIneffectiveBypasses         7128                       # Virtual bypasses incorrectly predicting requested blocks
system.l2cache.tags.tagsinuse             3599.156061                       # Cycle average of tags in use
system.l2cache.tags.total_refs                 497864                       # Total number of references to valid blocks.
system.l2cache.tags.sampled_refs               181149                       # Sample count of references to valid blocks.
system.l2cache.tags.avg_refs                 2.748367                       # Average number of references to valid blocks.
system.l2cache.tags.warmup_cycle                86000                       # Cycle when the warmup percentage was hit.
system.l2cache.tags.occ_blocks::.writebacks    15.709929                       # Average occupied blocks per requestor
system.l2cache.tags.occ_blocks::.cpu.inst   163.528738                       # Average occupied blocks per requestor
system.l2cache.tags.occ_blocks::.cpu.data  3419.917395                       # Average occupied blocks per requestor
system.l2cache.tags.occ_percent::.writebacks     0.003835                       # Average percentage of cache occupancy
system.l2cache.tags.occ_percent::.cpu.inst     0.039924                       # Average percentage of cache occupancy
system.l2cache.tags.occ_percent::.cpu.data     0.834941                       # Average percentage of cache occupancy
system.l2cache.tags.occ_percent::total       0.878700                       # Average percentage of cache occupancy
system.l2cache.tags.occ_task_id_blocks::1024         4096                       # Occupied blocks per task id
system.l2cache.tags.age_task_id_blocks_1024::0           74                       # Occupied blocks per task id
system.l2cache.tags.age_task_id_blocks_1024::1          210                       # Occupied blocks per task id
system.l2cache.tags.age_task_id_blocks_1024::2         3442                       # Occupied blocks per task id
system.l2cache.tags.age_task_id_blocks_1024::3          370                       # Occupied blocks per task id
system.l2cache.tags.occ_task_id_percent::1024            1                       # Percentage of cache occupancy per task id
system.l2cache.tags.tag_accesses              4188981                       # Number of tag accesses
system.l2cache.tags.data_accesses             4188981                       # Number of data accesses
system.l2cache.tags.power_state.pwrStateResidencyTicks::UNDEFINED 128198498000                       # Cumulative time (in ticks) in various power states
system.mem_ctrl.avgPriority_.writebacks::samples     59297.00                       # Average QoS priority value for accepted requests
system.mem_ctrl.avgPriority_.cpu.inst::samples       831.00                       # Average QoS priority value for accepted requests
system.mem_ctrl.avgPriority_.cpu.data::samples    180268.00                       # Average QoS priority value for accepted requests
system.mem_ctrl.priorityMinLatency       0.000000018750                       # per QoS priority minimum request to response latency (s)
system.mem_ctrl.priorityMaxLatency       0.012465330500                       # per QoS priority maximum request to response latency (s)
system.mem_ctrl.numReadWriteTurnArounds          3318                       # Number of turnarounds from READ to WRITE
system.mem_ctrl.numWriteReadTurnArounds          3318                       # Number of turnarounds from WRITE to READ
system.mem_ctrl.numStayReadState               454048                       # Number of times bus staying in READ state
system.mem_ctrl.numStayWriteState               56017                       # Number of times bus staying in WRITE state
system.mem_ctrl.readReqs                       181669                       # Number of read requests accepted
system.mem_ctrl.writeReqs                       59297                       # Number of write requests accepted
system.mem_ctrl.readBursts                     181669                       # Number of controller read bursts, including those serviced by the write queue
system.mem_ctrl.writeBursts                     59297                       # Number of controller write bursts, including those merged in the write queue
system.mem_ctrl.servicedByWrQ                     570                       # Number of controller read bursts serviced by the write queue
system.mem_ctrl.mergedWrBursts                      0                       # Number of controller write bursts merged with an existing one
system.mem_ctrl.neitherReadNorWriteReqs             0                       # Number of requests that are neither read nor write
system.mem_ctrl.avgRdQLen                        1.00                       # Average read queue length when enqueuing
system.mem_ctrl.avgWrQLen                       16.87                       # Average write queue length when enqueuing
system.mem_ctrl.numRdRetry                          0                       # Number of times read queue was full causing retry
system.mem_ctrl.numWrRetry                          0                       # Number of times write queue was full causing retry
system.mem_ctrl.readPktSize::0                      0                       # Read request sizes (log2)
system.mem_ctrl.readPktSize::1                      0                       # Read request sizes (log2)
system.mem_ctrl.readPktSize::2                      0                       # Read request sizes (log2)
system.mem_ctrl.readPktSize::3                      0                       # Read request sizes (log2)
system.mem_ctrl.readPktSize::4                      0                       # Read request sizes (log2)
system.mem_ctrl.readPktSize::5                      0                       # Read request sizes (log2)
system.mem_ctrl.readPktSize::6                 181669                       # Read request sizes (log2)
system.mem_ctrl.writePktSize::0                     0                       # Write request sizes (log2)
system.mem_ctrl.writePktSize::1                     0                       # Write request sizes (log2)
system.mem_ctrl.writePktSize::2                     0                       # Write request sizes (log2)
system.mem_ctrl.writePktSize::3                     0                       # Write request sizes (log2)
system.mem_ctrl.writePktSize::4                     0                       # Write request sizes (log2)
system.mem_ctrl.writePktSize::5                     0                       # Write request sizes (log2)
system.mem_ctrl.writePktSize::6                 59297                       # Write request sizes (log2)
system.mem_ctrl.rdQLenPdf::0                   181098                       # What read queue length does an incoming req see
system.mem_ctrl.rdQLenPdf::1                        1                       # What read queue length does an incoming req see
system.mem_ctrl.rdQLenPdf::2                        0                       # What read queue length does an incoming req see
system.mem_ctrl.rdQLenPdf::3                        0                       # What read queue length does an incoming req see
system.mem_ctrl.rdQLenPdf::4                        0                       # What read queue length does an incoming req see
system.mem_ctrl.rdQLenPdf::5                        0                       # What read queue length does an incoming req see
system.mem_ctrl.rdQLenPdf::6                        0                       # What read queue length does an incoming req see
system.mem_ctrl.rdQLenPdf::7                        0                       # What read queue length does an incoming req see
system.mem_ctrl.rdQLenPdf::8                        0                       # What read queue length does an incoming req see
system.mem_ctrl.rdQLenPdf::9                        0                       # What read queue length does an incoming req see
system.mem_ctrl.rdQLenPdf::10                       0                       # What read queue length does an incoming req see
system.mem_ctrl.rdQLenPdf::11                       0                       # What read queue length does an incoming req see
system.mem_ctrl.rdQLenPdf::12                       0                       # What read queue length does an incoming req see
system.mem_ctrl.rdQLenPdf::13                       0                       # What read queue length does an incoming req see
system.mem_ctrl.rdQLenPdf::14                       0                       # What read queue length does an incoming req see
system.mem_ctrl.rdQLenPdf::15                       0                       # What read queue length does an incoming req see
system.mem_ctrl.rdQLenPdf::16                       0                       # What read queue length does an incoming req see
system.mem_ctrl.rdQLenPdf::17                       0                       # What read queue length does an incoming req see
system.mem_ctrl.rdQLenPdf::18                       0                       # What read queue length does an incoming req see
system.mem_ctrl.rdQLenPdf::19                       0                       # What read queue length does an incoming req see
system.mem_ctrl.rdQLenPdf::20                       0                       # What read queue length does an incoming req see
system.mem_ctrl.rdQLenPdf::21                       0                       # What read queue length does an incoming req see
system.mem_ctrl.rdQLenPdf::22                       0                       # What read queue length does an incoming req see
system.mem_ctrl.rdQLenPdf::23                       0                       # What read queue length does an incoming req see
system.mem_ctrl.rdQLenPdf::24                       0                       # What read queue length does an incoming req see
system.mem_ctrl.rdQLenPdf::25                       0                       # What read queue length does an incoming req see
system.mem_ctrl.rdQLenPdf::26                       0                       # What read queue length does an incoming req see
system.mem_ctrl.rdQLenPdf::27                       0                       # What read queue length does an incoming req see
system.mem_ctrl.rdQLenPdf::28                       0                       # What read queue length does an incoming req see
system.mem_ctrl.rdQLenPdf::29                       0                       # What read queue length does an incoming req see
system.mem_ctrl.rdQLenPdf::30                       0                       # What read queue length does an incoming req see
system.mem_ctrl.rdQLenPdf::31                       0                       # What read queue length does an incoming req see
system.mem_ctrl.wrQLenPdf::0                        1                       # What write queue length does an incoming req see
system.mem_ctrl.wrQLenPdf::1                        1                       # What write queue length does an incoming req see
system.mem_ctrl.wrQLenPdf::2                        1                       # What write queue length does an incoming req see
system.mem_ctrl.wrQLenPdf::3                        1                       # What write queue length does an incoming req see
system.mem_ctrl.wrQLenPdf::4                        1                       # What write queue length does an incoming req see
system.mem_ctrl.wrQLenPdf::5                        1                       # What write queue length does an incoming req see
system.mem_ctrl.wrQLenPdf::6                        1                       # What write queue length does an incoming req see
system.mem_ctrl.wrQLenPdf::7                        1                       # What write queue length does an incoming req see
system.mem_ctrl.wrQLenPdf::8                        1                       # What write queue length does an incoming req see
system.mem_ctrl.wrQLenPdf::9                        1                       # What write queue length does an incoming req see
system.mem_ctrl.wrQLenPdf::10                       1                       # What write queue length does an incoming req see
system.mem_ctrl.wrQLenPdf::11                       1                       # What write queue length does an incoming req see
system.mem_ctrl.wrQLenPdf::12                       1                       # What write queue length does an incoming req see
system.mem_ctrl.wrQLenPdf::13                       1                       # What write queue length does an incoming req see
system.mem_ctrl.wrQLenPdf::14                       1                       # What write queue length does an incoming req see
system.mem_ctrl.wrQLenPdf::15                    3084                       # What write queue length does an incoming req see
system.mem_ctrl.wrQLenPdf::16                    3103                       # What write queue length does an incoming req see
system.mem_ctrl.wrQLenPdf::17                    3318                       # What write queue length does an incoming req see
system.mem_ctrl.wrQLenPdf::18                    3319                       # What write queue length does an incoming req see
system.mem_ctrl.wrQLenPdf::19                    3320                       # What write queue length does an incoming req see
system.mem_ctrl.wrQLenPdf::20                    3318                       # What write queue length does an incoming req see
system.mem_ctrl.wrQLenPdf::21                    3318                       # What write queue length does an incoming req see
system.mem_ctrl.wrQLenPdf::22                    3320                       # What write queue length does an incoming req see
system.mem_ctrl.wrQLenPdf::23                    3319                       # What write queue length does an incoming req see
system.mem_ctrl.wrQLenPdf::24                    3318                       # What write queue length does an incoming req see
system.mem_ctrl.wrQLenPdf::25                    3319                       # What write queue length does an incoming req see
system.mem_ctrl.wrQLenPdf::26                    3318                       # What write queue length does an incoming req see
system.mem_ctrl.wrQLenPdf::27                    3318                       # What write queue length does an incoming req see
system.mem_ctrl.wrQLenPdf::28                    3318                       # What write queue length does an incoming req see
system.mem_ctrl.wrQLenPdf::29                    3318                       # What write queue length does an incoming req see
system.mem_ctrl.wrQLenPdf::30                    3318                       # What write queue length does an incoming req see
system.mem_ctrl.wrQLenPdf::31                    3318                       # What write queue length does an incoming req see
system.mem_ctrl.wrQLenPdf::32                    3318                       # What write queue length does an incoming req see
system.mem_ctrl.wrQLenPdf::33                       0                       # What write queue length does an incoming req see
system.mem_ctrl.wrQLenPdf::34                       0                       # What write queue length does an incoming req see
system.mem_ctrl.wrQLenPdf::35                       0                       # What write queue length does an incoming req see
system.mem_ctrl.wrQLenPdf::36                       0                       # What write queue length does an incoming req see
system.mem_ctrl.wrQLenPdf::37                       0                       # What write queue length does an incoming req see
system.mem_ctrl.wrQLenPdf::38                       0                       # What write queue length does an incoming req see
system.mem_ctrl.wrQLenPdf::39                       0                       # What write queue length does an incoming req see
system.mem_ctrl.wrQLenPdf::40                       0                       # What write queue length does an incoming req see
system.mem_ctrl.wrQLenPdf::41                       0                       # What write queue length does an incoming req see
system.mem_ctrl.wrQLenPdf::42                       0                       # What write queue length does an incoming req see
system.mem_ctrl.wrQLenPdf::43                       0                       # What write queue length does an incoming req see
system.mem_ctrl.wrQLenPdf::44                       0                       # What write queue length does an incoming req see
system.mem_ctrl.wrQLenPdf::45                       0                       # What write queue length does an incoming req see
system.mem_ctrl.wrQLenPdf::46                       0                       # What write queue length does an incoming req see
system.mem_ctrl.wrQLenPdf::47                       0                       # What write queue length does an incoming req see
system.mem_ctrl.wrQLenPdf::48                       0                       # What write queue length does an incoming req see
system.mem_ctrl.wrQLenPdf::49                       0                       # What write queue length does an incoming req see
system.mem_ctrl.wrQLenPdf::50                       0                       # What write queue length does an incoming req see
system.mem_ctrl.wrQLenPdf::51                       0                       # What write queue length does an incoming req see
system.mem_ctrl.wrQLenPdf::52                       0                       # What write queue length does an incoming req see
system.mem_ctrl.wrQLenPdf::53                       0                       # What write queue length does an incoming req see
system.mem_ctrl.wrQLenPdf::54                       0                       # What write queue length does an incoming req see
system.mem_ctrl.wrQLenPdf::55                       0                       # What write queue length does an incoming req see
system.mem_ctrl.wrQLenPdf::56                       0                       # What write queue length does an incoming req see
system.mem_ctrl.wrQLenPdf::57                       0                       # What write queue length does an incoming req see
system.mem_ctrl.wrQLenPdf::58                       0                       # What write queue length does an incoming req see
system.mem_ctrl.wrQLenPdf::59                       0                       # What write queue length does an incoming req see
system.mem_ctrl.wrQLenPdf::60                       0                       # What write queue length does an incoming req see
system.mem_ctrl.wrQLenPdf::61                       0                       # What write queue length does an incoming req see
system.mem_ctrl.wrQLenPdf::62                       0                       # What write queue length does an incoming req see
system.mem_ctrl.wrQLenPdf::63                       0                       # What write queue length does an incoming req see
system.mem_ctrl.rdPerTurnAround::samples         3318                       # Reads before turning the bus around for writes
system.mem_ctrl.rdPerTurnAround::mean       54.557263                       # Reads before turning the bus around for writes
system.mem_ctrl.rdPerTurnAround::gmean      40.682039                       # Reads before turning the bus around for writes
system.mem_ctrl.rdPerTurnAround::stdev     146.851037                       # Reads before turning the bus around for writes
system.mem_ctrl.rdPerTurnAround::0-255           3287     99.07%     99.07% # Reads before turning the bus around for writes
system.mem_ctrl.rdPerTurnAround::256-511           12      0.36%     99.43% # Reads before turning the bus around for writes
system.mem_ctrl.rdPerTurnAround::512-767            7      0.21%     99.64% # Reads before turning the bus around for writes
system.mem_ctrl.rdPerTurnAround::768-1023            1      0.03%     99.67% # Reads before turning the bus around for writes
system.mem_ctrl.rdPerTurnAround::1792-2047            2      0.06%     99.73% # Reads before turning the bus around for writes
system.mem_ctrl.rdPerTurnAround::2048-2303            5      0.15%     99.88% # Reads before turning the bus around for writes
system.mem_ctrl.rdPerTurnAround::2304-2559            3      0.09%     99.97% # Reads before turning the bus around for writes
system.mem_ctrl.rdPerTurnAround::4352-4607            1      0.03%    100.00% # Reads before turning the bus around for writes
system.mem_ctrl.rdPerTurnAround::total           3318                       # Reads before turning the bus around for writes
system.mem_ctrl.wrPerTurnAround::samples         3318                       # Writes before turning the bus around for reads
system.mem_ctrl.wrPerTurnAround::mean       17.866787                       # Writes before turning the bus around for reads
system.mem_ctrl.wrPerTurnAround::gmean      17.859336                       # Writes before turning the bus around for reads
system.mem_ctrl.wrPerTurnAround::stdev       0.499357                       # Writes before turning the bus around for reads
system.mem_ctrl.wrPerTurnAround::16               215      6.48%      6.48% # Writes before turning the bus around for reads
system.mem_ctrl.wrPerTurnAround::17                19      0.57%      7.05% # Writes before turning the bus around for reads
system.mem_ctrl.wrPerTurnAround::18              3077     92.74%     99.79% # Writes before turning the bus around for reads
system.mem_ctrl.wrPerTurnAround::19                 7      0.21%    100.00% # Writes before turning the bus around for reads
system.mem_ctrl.wrPerTurnAround::total           3318                       # Writes before turning the bus around for reads
system.mem_ctrl.bytesReadWrQ                    36480                       # Total number of bytes read from write queue
system.mem_ctrl.bytesReadSys                 11626816                       # Total read bytes from the system interface side
system.mem_ctrl.bytesWrittenSys               3795008                       # Total written bytes from the system interface side
system.mem_ctrl.avgRdBWSys                      90.69                       # Average system read bandwidth in MiByte/s
system.mem_ctrl.avgWrBWSys                      29.60                       # Average system write bandwidth in MiByte/s
[...]
system.mem_ctrl.requestorReadRate::.cpu.data 89994439.716446608305                       # Per-requestor bytes read from memory rate (Bytes/sec)
system.mem_ctrl.requestorWriteRate::.writebacks 29595104.928608447313                       # Per-requestor bytes write to memory rate (Bytes/sec)
system.mem_ctrl.requestorReadAccesses::.cpu.inst          831                       # Per-requestor read serviced memory accesses
system.mem_ctrl.requestorReadAccesses::.cpu.data       180838                       # Per-requestor read serviced memory accesses
system.mem_ctrl.requestorWriteAccesses::.writebacks        59297                       # Per-requestor write serviced memory accesses
system.mem_ctrl.requestorReadTotalLat::.cpu.inst     22039750                       # Per-requestor read total memory access latency
system.mem_ctrl.requestorReadTotalLat::.cpu.data   5536706500                       # Per-requestor read total memory access latency
system.mem_ctrl.requestorWriteTotalLat::.writebacks 2081281309750                       # Per-requestor write total memory access latency
system.mem_ctrl.requestorReadAvgLat::.cpu.inst     26521.96                       # Per-requestor read average memory access latency
system.mem_ctrl.requestorReadAvgLat::.cpu.data     30616.94                       # Per-requestor read average memory access latency
system.mem_ctrl.requestorWriteAvgLat::.writebacks  35099268.26                       # Per-requestor write average memory access latency
system.mem_ctrl.dram.bytes_read::.cpu.inst        53184                       # Number of bytes read from this memory
system.mem_ctrl.dram.bytes_read::.cpu.data     11573632                       # Number of bytes read from this memory
system.mem_ctrl.dram.bytes_read::total       11626816                       # Number of bytes read from this memory
system.mem_ctrl.dram.bytes_inst_read::.cpu.inst        53184                       # Number of instructions bytes read from this memory
system.mem_ctrl.dram.bytes_inst_read::total        53184                       # Number of instructions bytes read from this memory
system.mem_ctrl.dram.bytes_written::.writebacks      3795008                       # Number of bytes written to this memory
system.mem_ctrl.dram.bytes_written::total      3795008                       # Number of bytes written to this memory
system.mem_ctrl.dram.num_reads::.cpu.inst          831                       # Number of read requests responded to by this memory
system.mem_ctrl.dram.num_reads::.cpu.data       180838                       # Number of read requests responded to by this memory
system.mem_ctrl.dram.num_reads::total          181669                       # Number of read requests responded to by this memory
system.mem_ctrl.dram.num_writes::.writebacks        59297                       # Number of write requests responded to by this memory
system.mem_ctrl.dram.num_writes::total          59297                       # Number of write requests responded to by this memory
system.mem_ctrl.dram.bw_read::.cpu.inst        414857                       # Total read bandwidth from this memory (bytes/s)
system.mem_ctrl.dram.bw_read::.cpu.data      90278998                       # Total read bandwidth from this memory (bytes/s)
system.mem_ctrl.dram.bw_read::total          90693855                       # Total read bandwidth from this memory (bytes/s)
system.mem_ctrl.dram.bw_inst_read::.cpu.inst       414857                       # Instruction read bandwidth from this memory (bytes/s)
system.mem_ctrl.dram.bw_inst_read::total       414857                       # Instruction read bandwidth from this memory (bytes/s)
system.mem_ctrl.dram.bw_write::.writebacks     29602593                       # Write bandwidth from this memory (bytes/s)
system.mem_ctrl.dram.bw_write::total         29602593                       # Write bandwidth from this memory (bytes/s)
system.mem_ctrl.dram.bw_total::.writebacks     29602593                       # Total bandwidth to/from this memory (bytes/s)
system.mem_ctrl.dram.bw_total::.cpu.inst       414857                       # Total bandwidth to/from this memory (bytes/s)
system.mem_ctrl.dram.bw_total::.cpu.data     90278998                       # Total bandwidth to/from this memory (bytes/s)
system.mem_ctrl.dram.bw_total::total        120296448                       # Total bandwidth to/from this memory (bytes/s)
system.mem_ctrl.dram.readBursts                181099                       # Number of DRAM read bursts
system.mem_ctrl.dram.writeBursts                59282                       # Number of DRAM write bursts
system.mem_ctrl.dram.perBankRdBursts::0         11591                       # Per bank write bursts
system.mem_ctrl.dram.perBankRdBursts::1         11490                       # Per bank write bursts
system.mem_ctrl.dram.perBankRdBursts::2         12407                       # Per bank write bursts
system.mem_ctrl.dram.perBankRdBursts::3         10851                       # Per bank write bursts
system.mem_ctrl.dram.perBankRdBursts::4         10638                       # Per bank write bursts
system.mem_ctrl.dram.perBankRdBursts::5         11094                       # Per bank write bursts
system.mem_ctrl.dram.perBankRdBursts::6         11245                       # Per bank write bursts
system.mem_ctrl.dram.perBankRdBursts::7         10800                       # Per bank write bursts
system.mem_ctrl.dram.perBankRdBursts::8         11044                       # Per bank write bursts
system.mem_ctrl.dram.perBankRdBursts::9         11301                       # Per bank write bursts
system.mem_ctrl.dram.perBankRdBursts::10        11355                       # Per bank write bursts
system.mem_ctrl.dram.perBankRdBursts::11        11350                       # Per bank write bursts
system.mem_ctrl.dram.perBankRdBursts::12        11378                       # Per bank write bursts
system.mem_ctrl.dram.perBankRdBursts::13        11438                       # Per bank write bursts
system.mem_ctrl.dram.perBankRdBursts::14        11736                       # Per bank write bursts
system.mem_ctrl.dram.perBankRdBursts::15        11381                       # Per bank write bursts
system.mem_ctrl.dram.perBankWrBursts::0          3594                       # Per bank write bursts
system.mem_ctrl.dram.perBankWrBursts::1          4051                       # Per bank write bursts
system.mem_ctrl.dram.perBankWrBursts::2          5692                       # Per bank write bursts
system.mem_ctrl.dram.perBankWrBursts::3          4076                       # Per bank write bursts
system.mem_ctrl.dram.perBankWrBursts::4          3546                       # Per bank write bursts
system.mem_ctrl.dram.perBankWrBursts::5          3577                       # Per bank write bursts
system.mem_ctrl.dram.perBankWrBursts::6          3490                       # Per bank write bursts
system.mem_ctrl.dram.perBankWrBursts::7          3476                       # Per bank write bursts
system.mem_ctrl.dram.perBankWrBursts::8          3483                       # Per bank write bursts
system.mem_ctrl.dram.perBankWrBursts::9          3495                       # Per bank write bursts
system.mem_ctrl.dram.perBankWrBursts::10         3482                       # Per bank write bursts
system.mem_ctrl.dram.perBankWrBursts::11         3471                       # Per bank write bursts
system.mem_ctrl.dram.perBankWrBursts::12         3485                       # Per bank write bursts
system.mem_ctrl.dram.perBankWrBursts::13         3462                       # Per bank write bursts
system.mem_ctrl.dram.perBankWrBursts::14         3440                       # Per bank write bursts
system.mem_ctrl.dram.perBankWrBursts::15         3462                       # Per bank write bursts
system.mem_ctrl.dram.totQLat               2163140000                       # Total ticks spent queuing
system.mem_ctrl.dram.totBusLat              905495000                       # Total ticks spent in databus transfers
system.mem_ctrl.dram.totMemAccLat          5558746250                       # Total ticks spent from burst creation until serviced by the DRAM
system.mem_ctrl.dram.avgQLat                 11944.52                       # Average queueing delay per DRAM burst
system.mem_ctrl.dram.avgBusLat                5000.00                       # Average bus latency per DRAM burst
system.mem_ctrl.dram.avgMemAccLat            30694.52                       # Average memory access latency per DRAM burst
system.mem_ctrl.dram.readRowHits               114518                       # Number of row buffer hits during reads
system.mem_ctrl.dram.writeRowHits               43500                       # Number of row buffer hits during writes
system.mem_ctrl.dram.readRowHitRate             63.24                       # Row buffer hit rate for reads
system.mem_ctrl.dram.writeRowHitRate            73.38                       # Row buffer hit rate for writes
system.mem_ctrl.dram.bytesPerActivate::samples        82356                       # Bytes accessed per row activation
system.mem_ctrl.dram.bytesPerActivate::mean   186.782457                       # Bytes accessed per row activation
system.mem_ctrl.dram.bytesPerActivate::gmean   115.101282                       # Bytes accessed per row activation
system.mem_ctrl.dram.bytesPerActivate::stdev   240.448392                       # Bytes accessed per row activation
system.mem_ctrl.dram.bytesPerActivate::0-127        49425     60.01%     60.01% # Bytes accessed per row activation
system.mem_ctrl.dram.bytesPerActivate::128-255        16062     19.50%     79.52% # Bytes accessed per row activation
system.mem_ctrl.dram.bytesPerActivate::256-383         4831      5.87%     85.38% # Bytes accessed per row activation
system.mem_ctrl.dram.bytesPerActivate::384-511         2682      3.26%     88.64% # Bytes accessed per row activation
system.mem_ctrl.dram.bytesPerActivate::512-639         2448      2.97%     91.61% # Bytes accessed per row activation
system.mem_ctrl.dram.bytesPerActivate::640-767         1939      2.35%     93.97% # Bytes accessed per row activation
system.mem_ctrl.dram.bytesPerActivate::768-895          877      1.06%     95.03% # Bytes accessed per row activation
system.mem_ctrl.dram.bytesPerActivate::896-1023         1056      1.28%     96.31% # Bytes accessed per row activation
system.mem_ctrl.dram.bytesPerActivate::1024-1151         3036      3.69%    100.00% # Bytes accessed per row activation
system.mem_ctrl.dram.bytesPerActivate::total        82356                       # Bytes accessed per row activation
system.mem_ctrl.dram.bytesRead               11590336                       # Total number of bytes read from DRAM
system.mem_ctrl.dram.bytesWritten             3794048                       # Total number of bytes written to DRAM
system.mem_ctrl.dram.avgRdBW                90.409296                       # Average DRAM read bandwidth in MiBytes/s
system.mem_ctrl.dram.avgWrBW                29.595105                       # Average DRAM write bandwidth in MiBytes/s
system.mem_ctrl.dram.peakBW                  12800.00                       # Theoretical peak bandwidth in MiByte/s
system.mem_ctrl.dram.busUtil                     0.94                       # Data bus utilization in percentage
system.mem_ctrl.dram.busUtilRead                 0.71                       # Data bus utilization in percentage for reads
system.mem_ctrl.dram.busUtilWrite                0.23                       # Data bus utilization in percentage for writes
system.mem_ctrl.dram.pageHitRate                65.74                       # Row buffer hit rate, read and write combined
system.mem_ctrl.dram.power_state.pwrStateResidencyTicks::UNDEFINED 128198498000                       # Cumulative time (in ticks) in various power states
system.mem_ctrl.dram.rank0.actEnergy        297009720                       # Energy for activate commands per rank (pJ)
system.mem_ctrl.dram.rank0.preEnergy        157853025                       # Energy for precharge commands per rank (pJ)
system.mem_ctrl.dram.rank0.readEnergy       643428240                       # Energy for read commands per rank (pJ)
system.mem_ctrl.dram.rank0.writeEnergy      164440440                       # Energy for write commands per rank (pJ)
system.mem_ctrl.dram.rank0.refreshEnergy 10119432960.000002                       # Energy for refresh commands per rank (pJ)
system.mem_ctrl.dram.rank0.actBackEnergy  30136987560                       # Energy for active background per rank (pJ)
system.mem_ctrl.dram.rank0.preBackEnergy  23849707680                       # Energy for precharge background per rank (pJ)
system.mem_ctrl.dram.rank0.actPowerDownEnergy            0                       # Energy for active power-down per rank (pJ)
system.mem_ctrl.dram.rank0.prePowerDownEnergy            0                       # Energy for precharge power-down per rank (pJ)
system.mem_ctrl.dram.rank0.selfRefreshEnergy            0                       # Energy for self refresh per rank (pJ)
system.mem_ctrl.dram.rank0.totalEnergy    65368859625                       # Total energy per rank (pJ)
system.mem_ctrl.dram.rank0.averagePower    509.903475                       # Core power per rank (mW)
system.mem_ctrl.dram.rank0.totalIdleTime            0                       # Total Idle time Per DRAM Rank
system.mem_ctrl.dram.rank0.pwrStateTime::IDLE  61702936750                       # Time in different power states
system.mem_ctrl.dram.rank0.pwrStateTime::REF   4280640000                       # Time in different power states
system.mem_ctrl.dram.rank0.pwrStateTime::SREF            0                       # Time in different power states
system.mem_ctrl.dram.rank0.pwrStateTime::PRE_PDN            0                       # Time in different power states
system.mem_ctrl.dram.rank0.pwrStateTime::ACT  62214921250                       # Time in different power states
system.mem_ctrl.dram.rank0.pwrStateTime::ACT_PDN            0                       # Time in different power states
system.mem_ctrl.dram.rank1.actEnergy        291062100                       # Energy for activate commands per rank (pJ)
system.mem_ctrl.dram.rank1.preEnergy        154687995                       # Energy for precharge commands per rank (pJ)
system.mem_ctrl.dram.rank1.readEnergy       649618620                       # Energy for read commands per rank (pJ)
system.mem_ctrl.dram.rank1.writeEnergy      145011600                       # Energy for write commands per rank (pJ)
system.mem_ctrl.dram.rank1.refreshEnergy 10119432960.000002                       # Energy for refresh commands per rank (pJ)
system.mem_ctrl.dram.rank1.actBackEnergy  30055247280                       # Energy for active background per rank (pJ)
system.mem_ctrl.dram.rank1.preBackEnergy  23918541600                       # Energy for precharge background per rank (pJ)
system.mem_ctrl.dram.rank1.actPowerDownEnergy            0                       # Energy for active power-down per rank (pJ)
system.mem_ctrl.dram.rank1.prePowerDownEnergy            0                       # Energy for precharge power-down per rank (pJ)
system.mem_ctrl.dram.rank1.selfRefreshEnergy            0                       # Energy for self refresh per rank (pJ)
system.mem_ctrl.dram.rank1.totalEnergy    65333602155                       # Total energy per rank (pJ)
system.mem_ctrl.dram.rank1.averagePower    509.628453                       # Core power per rank (mW)
system.mem_ctrl.dram.rank1.totalIdleTime            0                       # Total Idle time Per DRAM Rank
system.mem_ctrl.dram.rank1.pwrStateTime::IDLE  61880390000                       # Time in different power states
system.mem_ctrl.dram.rank1.pwrStateTime::REF   4280640000                       # Time in different power states
system.mem_ctrl.dram.rank1.pwrStateTime::SREF            0                       # Time in different power states
system.mem_ctrl.dram.rank1.pwrStateTime::PRE_PDN            0                       # Time in different power states
system.mem_ctrl.dram.rank1.pwrStateTime::ACT  62037468000                       # Time in different power states
system.mem_ctrl.dram.rank1.pwrStateTime::ACT_PDN            0                       # Time in different power states
system.mem_ctrl.power_state.pwrStateResidencyTicks::UNDEFINED 128198498000                       # Cumulative time (in ticks) in various power states
system.membus.trans_dist::ReadResp             122761                       # Transaction distribution
system.membus.trans_dist::WritebackDirty        59297                       # Transaction distribution
system.membus.trans_dist::CleanEvict           118186                       # Transaction distribution
system.membus.trans_dist::ReadExReq             58908                       # Transaction distribution
system.membus.trans_dist::ReadExResp            58908                       # Transaction distribution
system.membus.trans_dist::ReadSharedReq        122761                       # Transaction distribution
system.membus.pkt_count_system.l2cache.mem_side_port::system.mem_ctrl.port       540821                       # Packet count per connected requestor and responder (bytes)
system.membus.pkt_count_system.l2cache.mem_side_port::total       540821                       # Packet count per connected requestor and responder (bytes)
system.membus.pkt_count::total                 540821                       # Packet count per connected requestor and responder (bytes)
system.membus.pkt_size_system.l2cache.mem_side_port::system.mem_ctrl.port     15421824                       # Cumulative packet size per connected requestor and responder (bytes)
system.membus.pkt_size_system.l2cache.mem_side_port::total     15421824                       # Cumulative packet size per connected requestor and responder (bytes)
system.membus.pkt_size::total                15421824                       # Cumulative packet size per connected requestor and responder (bytes)
system.membus.snoops                                0                       # Total snoops (count)
system.membus.snoopTraffic                          0                       # Total snoop traffic (bytes)
system.membus.snoop_fanout::samples            181669                       # Request fanout histogram
system.membus.snoop_fanout::mean                    0                       # Request fanout histogram
system.membus.snoop_fanout::stdev                   0                       # Request fanout histogram
system.membus.snoop_fanout::underflows              0      0.00%      0.00% # Request fanout histogram
system.membus.snoop_fanout::0                  181669    100.00%    100.00% # Request fanout histogram
system.membus.snoop_fanout::1                       0      0.00%    100.00% # Request fanout histogram
system.membus.snoop_fanout::overflows               0      0.00%    100.00% # Request fanout histogram
system.membus.snoop_fanout::min_value               0                       # Request fanout histogram
system.membus.snoop_fanout::max_value               0                       # Request fanout histogram
system.membus.snoop_fanout::total              181669                       # Request fanout histogram
system.membus.power_state.pwrStateResidencyTicks::UNDEFINED 128198498000                       # Cumulative time (in ticks) in various power states
system.membus.reqLayer2.occupancy           596340000                       # Layer occupancy (ticks)
system.membus.reqLayer2.utilization               0.5                       # Layer utilization (%)
system.membus.respLayer0.occupancy          973709250                       # Layer occupancy (ticks)
system.membus.respLayer0.utilization              0.8                       # Layer utilization (%)

---------- End Simulation Statistics   ----------
