
---------- Begin Simulation Statistics ----------
final_tick                               1703838977000                       # Number of ticks from beginning of simulation (restored from checkpoints and never reset)
host_inst_rate                                 426249                       # Simulator instruction rate (inst/s)
host_mem_usage                                 666180                       # Number of bytes of host memory used
host_op_rate                                   782221                       # Simulator op (including micro ops) rate (op/s)
host_seconds                                   697.20                       # Real time elapsed on the host
host_tick_rate                             2443829644                       # Simulator tick rate (ticks/s)
sim_freq                                 1000000000000                       # Frequency of simulated ticks
sim_insts                                   297180988                       # Number of instructions simulated
sim_ops                                     545364545                       # Number of ops (including micro ops) simulated
sim_seconds                                  1.703839                       # Number of seconds simulated
sim_ticks                                1703838977000                       # Number of ticks simulated
system.cpu.Branches                          49473264                       # Number of branches fetched
system.cpu.committedInsts                   297180988                       # Number of instructions committed
system.cpu.committedOps                     545364545                       # Number of ops (including micro ops) committed
system.cpu.idle_fraction                     0.000000                       # Percentage of idle cycles
system.cpu.not_idle_fraction                 1.000000                       # Percentage of non-idle cycles
system.cpu.numCycles                       1703838977                       # number of cpu cycles simulated
system.cpu.numWorkItemsCompleted                    0                       # number of work items this cpu completed
system.cpu.numWorkItemsStarted                      0                       # number of work items this cpu started
system.cpu.num_busy_cycles               1703838976.999000                       # Number of busy cycles
system.cpu.num_cc_register_reads            252086558                       # number of times the CC registers were read
system.cpu.num_cc_register_writes           180867038                       # number of times the CC registers were written
system.cpu.num_conditional_control_insts     49270091                       # number of instructions that are conditional controls
system.cpu.num_fp_alu_accesses              184508630                       # Number of float alu accesses
system.cpu.num_fp_insts                     184508630                       # number of float instructions
system.cpu.num_fp_register_reads            225216959                       # number of times the floating registers were read
system.cpu.num_fp_register_writes           180499649                       # number of times the floating registers were written
system.cpu.num_func_calls                       81592                       # number of times a function call or return occured
system.cpu.num_idle_cycles                   0.001000                       # Number of idle cycles
system.cpu.num_int_alu_accesses             435906624                       # Number of integer alu accesses
system.cpu.num_int_insts                    435906624                       # number of integer instructions
system.cpu.num_int_register_reads           778693009                       # number of times the integer registers were read
system.cpu.num_int_register_writes          309382684                       # number of times the integer registers were written
system.cpu.num_load_insts                   111390470                       # Number of load instructions
system.cpu.num_mem_refs                     116747138                       # number of memory refs
system.cpu.num_store_insts                    5356668                       # Number of store instructions
system.cpu.num_vec_alu_accesses                     0                       # Number of vector alu accesses
system.cpu.num_vec_insts                            0                       # number of vector instructions
system.cpu.num_vec_register_reads                   0                       # number of times the vector registers were read
system.cpu.num_vec_register_writes                  0                       # number of times the vector registers were written
system.cpu.op_class::No_OpClass                710625      0.13%      0.13% # Class of executed instruction
system.cpu.op_class::IntAlu                 322694265     59.17%     59.30% # Class of executed instruction
system.cpu.op_class::IntMult                    30102      0.01%     59.31% # Class of executed instruction
system.cpu.op_class::IntDiv                       623      0.00%     59.31% # Class of executed instruction
system.cpu.op_class::FloatAdd                33737834      6.19%     65.49% # Class of executed instruction
system.cpu.op_class::FloatCmp                       0      0.00%     65.49% # Class of executed instruction
system.cpu.op_class::FloatCvt                       0      0.00%     65.49% # Class of executed instruction
system.cpu.op_class::FloatMult                      0      0.00%     65.49% # Class of executed instruction
system.cpu.op_class::FloatMultAcc                   0      0.00%     65.49% # Class of executed instruction
system.cpu.op_class::FloatDiv                       0      0.00%     65.49% # Class of executed instruction
system.cpu.op_class::FloatMisc                      0      0.00%     65.49% # Class of executed instruction
system.cpu.op_class::FloatSqrt                      0      0.00%     65.49% # Class of executed instruction
system.cpu.op_class::SimdAdd                    76762      0.01%     65.51% # Class of executed instruction
system.cpu.op_class::SimdAddAcc                     0      0.00%     65.51% # Class of executed instruction
system.cpu.op_class::SimdAlu                    60252      0.01%     65.52% # Class of executed instruction
system.cpu.op_class::SimdCmp                       24      0.00%     65.52% # Class of executed instruction
system.cpu.op_class::SimdCvt                     1170      0.00%     65.52% # Class of executed instruction
system.cpu.op_class::SimdMisc                  125019      0.02%     65.54% # Class of executed instruction
system.cpu.op_class::SimdMult                       0      0.00%     65.54% # Class of executed instruction
system.cpu.op_class::SimdMultAcc                    0      0.00%     65.54% # Class of executed instruction
system.cpu.op_class::SimdShift                      0      0.00%     65.54% # Class of executed instruction
system.cpu.op_class::SimdShiftAcc                   0      0.00%     65.54% # Class of executed instruction
system.cpu.op_class::SimdDiv                        0      0.00%     65.54% # Class of executed instruction
system.cpu.op_class::SimdSqrt                       0      0.00%     65.54% # Class of executed instruction
system.cpu.op_class::SimdFloatAdd            35512541      6.51%     72.05% # Class of executed instruction
system.cpu.op_class::SimdFloatAlu                   0      0.00%     72.05% # Class of executed instruction
system.cpu.op_class::SimdFloatCmp                   0      0.00%     72.05% # Class of executed instruction
system.cpu.op_class::SimdFloatCvt              101637      0.02%     72.07% # Class of executed instruction
system.cpu.op_class::SimdFloatDiv                 835      0.00%     72.07% # Class of executed instruction
system.cpu.op_class::SimdFloatMisc                  0      0.00%     72.07% # Class of executed instruction
system.cpu.op_class::SimdFloatMult           35565797      6.52%     78.59% # Class of executed instruction
system.cpu.op_class::SimdFloatMultAcc               0      0.00%     78.59% # Class of executed instruction
system.cpu.op_class::SimdFloatSqrt                 32      0.00%     78.59% # Class of executed instruction
system.cpu.op_class::SimdReduceAdd                  0      0.00%     78.59% # Class of executed instruction
system.cpu.op_class::SimdReduceAlu                  0      0.00%     78.59% # Class of executed instruction
system.cpu.op_class::SimdReduceCmp                  0      0.00%     78.59% # Class of executed instruction
system.cpu.op_class::SimdFloatReduceAdd             0      0.00%     78.59% # Class of executed instruction
system.cpu.op_class::SimdFloatReduceCmp             0      0.00%     78.59% # Class of executed instruction
system.cpu.op_class::SimdAes                        0      0.00%     78.59% # Class of executed instruction
system.cpu.op_class::SimdAesMix                     0      0.00%     78.59% # Class of executed instruction
system.cpu.op_class::SimdSha1Hash                   0      0.00%     78.59% # Class of executed instruction
system.cpu.op_class::SimdSha1Hash2                  0      0.00%     78.59% # Class of executed instruction
system.cpu.op_class::SimdSha256Hash                 0      0.00%     78.59% # Class of executed instruction
system.cpu.op_class::SimdSha256Hash2                0      0.00%     78.59% # Class of executed instruction
system.cpu.op_class::SimdShaSigma2                  0      0.00%     78.59% # Class of executed instruction
system.cpu.op_class::SimdShaSigma3                  0      0.00%     78.59% # Class of executed instruction
system.cpu.op_class::SimdPredAlu                    0      0.00%     78.59% # Class of executed instruction
system.cpu.op_class::MemRead                 39670287      7.27%     85.87% # Class of executed instruction
system.cpu.op_class::MemWrite                 1421537      0.26%     86.13% # Class of executed instruction
system.cpu.op_class::FloatMemRead            71720183     13.15%     99.28% # Class of executed instruction
system.cpu.op_class::FloatMemWrite            3935131      0.72%    100.00% # Class of executed instruction
system.cpu.op_class::IprAccess                      0      0.00%    100.00% # Class of executed instruction
system.cpu.op_class::InstPrefetch                   0      0.00%    100.00% # Class of executed instruction
system.cpu.op_class::total                  545364656                       # Class of executed instruction
system.cpu.workload.numSyscalls                    87                       # Number of system calls
system.l2bus.snoop_filter.hit_multi_requests            0                       # Number of requests hitting in the snoop filter with multiple (>1) holders of the requested data.
system.l2bus.snoop_filter.hit_multi_snoops            0                       # Number of snoops hitting in the snoop filter with multiple (>1) holders of the requested data.
system.l2bus.snoop_filter.hit_single_requests      6626204                       # Number of requests hitting in the snoop filter with a single holder of the requested data.
system.l2bus.snoop_filter.hit_single_snoops        21537                       # Number of snoops hitting in the snoop filter with a single holder of the requested data.
system.l2bus.snoop_filter.tot_requests       13253688                       # Total number of requests made to the snoop filter.
system.l2bus.snoop_filter.tot_snoops            21537                       # Total number of snoops made to the snoop filter.
system.membus.snoop_filter.hit_multi_requests            0                       # Number of requests hitting in the snoop filter with multiple (>1) holders of the requested data.
system.membus.snoop_filter.hit_multi_snoops            0                       # Number of snoops hitting in the snoop filter with multiple (>1) holders of the requested data.
system.membus.snoop_filter.hit_single_requests      6442322                       # Number of requests hitting in the snoop filter with a single holder of the requested data.
system.membus.snoop_filter.hit_single_snoops            0                       # Number of snoops hitting in the snoop filter with a single holder of the requested data.
system.membus.snoop_filter.tot_requests      12892907                       # Total number of requests made to the snoop filter.
system.membus.snoop_filter.tot_snoops               0                       # Total number of snoops made to the snoop filter.
system.clk_domain.clock                          1000                       # Clock period in ticks
system.clk_domain.voltage_domain.voltage            1                       # Voltage in Volts
system.cpu.dcache.demand_hits::.cpu.data    110150249                       # number of demand (read+write) hits
system.cpu.dcache.demand_hits::total        110150249                       # number of demand (read+write) hits
system.cpu.dcache.overall_hits::.cpu.data    110150249                       # number of overall hits
system.cpu.dcache.overall_hits::total       110150249                       # number of overall hits
system.cpu.dcache.demand_misses::.cpu.data      6608747                       # number of demand (read+write) misses
system.cpu.dcache.demand_misses::total        6608747                       # number of demand (read+write) misses
system.cpu.dcache.overall_misses::.cpu.data      6608747                       # number of overall misses
system.cpu.dcache.overall_misses::total       6608747                       # number of overall misses
system.cpu.dcache.demand_miss_latency::.cpu.data 655856856000                       # number of demand (read+write) miss cycles
system.cpu.dcache.demand_miss_latency::total 655856856000                       # number of demand (read+write) miss cycles
system.cpu.dcache.overall_miss_latency::.cpu.data 655856856000                       # number of overall miss cycles
system.cpu.dcache.overall_miss_latency::total 655856856000                       # number of overall miss cycles
system.cpu.dcache.demand_accesses::.cpu.data    116758996                       # number of demand (read+write) accesses
system.cpu.dcache.demand_accesses::total    116758996                       # number of demand (read+write) accesses
system.cpu.dcache.overall_accesses::.cpu.data    116758996                       # number of overall (read+write) accesses
system.cpu.dcache.overall_accesses::total    116758996                       # number of overall (read+write) accesses
system.cpu.dcache.demand_miss_rate::.cpu.data     0.056602                       # miss rate for demand accesses
system.cpu.dcache.demand_miss_rate::total     0.056602                       # miss rate for demand accesses
system.cpu.dcache.overall_miss_rate::.cpu.data     0.056602                       # miss rate for overall accesses
system.cpu.dcache.overall_miss_rate::total     0.056602                       # miss rate for overall accesses
system.cpu.dcache.demand_avg_miss_latency::.cpu.data 99240.726873                       # average overall miss latency
system.cpu.dcache.demand_avg_miss_latency::total 99240.726873                       # average overall miss latency
system.cpu.dcache.overall_avg_miss_latency::.cpu.data 99240.726873                       # average overall miss latency
system.cpu.dcache.overall_avg_miss_latency::total 99240.726873                       # average overall miss latency
system.cpu.dcache.blocked_cycles::no_mshrs            0                       # number of cycles access was blocked
system.cpu.dcache.blocked_cycles::no_targets            0                       # number of cycles access was blocked
system.cpu.dcache.blocked::no_mshrs                 0                       # number of cycles access was blocked
system.cpu.dcache.blocked::no_targets               0                       # number of cycles access was blocked
system.cpu.dcache.avg_blocked_cycles::no_mshrs          nan                       # average number of cycles each access was blocked
system.cpu.dcache.avg_blocked_cycles::no_targets          nan                       # average number of cycles each access was blocked
system.cpu.dcache.writebacks::.writebacks       403362                       # number of writebacks
system.cpu.dcache.writebacks::total            403362                       # number of writebacks
system.cpu.dcache.demand_mshr_misses::.cpu.data      6608747                       # number of demand (read+write) MSHR misses
system.cpu.dcache.demand_mshr_misses::total      6608747                       # number of demand (read+write) MSHR misses
system.cpu.dcache.overall_mshr_misses::.cpu.data      6608747                       # number of overall MSHR misses
system.cpu.dcache.overall_mshr_misses::total      6608747                       # number of overall MSHR misses
system.cpu.dcache.demand_mshr_miss_latency::.cpu.data 642639362000                       # number of demand (read+write) MSHR miss cycles
system.cpu.dcache.demand_mshr_miss_latency::total 642639362000                       # number of demand (read+write) MSHR miss cycles
system.cpu.dcache.overall_mshr_miss_latency::.cpu.data 642639362000                       # number of overall MSHR miss cycles
system.cpu.dcache.overall_mshr_miss_latency::total 642639362000                       # number of overall MSHR miss cycles
system.cpu.dcache.demand_mshr_miss_rate::.cpu.data     0.056602                       # mshr miss rate for demand accesses
system.cpu.dcache.demand_mshr_miss_rate::total     0.056602                       # mshr miss rate for demand accesses
system.cpu.dcache.overall_mshr_miss_rate::.cpu.data     0.056602                       # mshr miss rate for overall accesses
system.cpu.dcache.overall_mshr_miss_rate::total     0.056602                       # mshr miss rate for overall accesses
system.cpu.dcache.demand_avg_mshr_miss_latency::.cpu.data 97240.726873                       # average overall mshr miss latency
system.cpu.dcache.demand_avg_mshr_miss_latency::total 97240.726873                       # average overall mshr miss latency
system.cpu.dcache.overall_avg_mshr_miss_latency::.cpu.data 97240.726873                       # average overall mshr miss latency
system.cpu.dcache.overall_avg_mshr_miss_latency::total 97240.726873                       # average overall mshr miss latency
system.cpu.dcache.replacements                6607723                       # number of replacements
system.cpu.dcache.ReadReq_hits::.cpu.data    104904677                       # number of ReadReq hits
system.cpu.dcache.ReadReq_hits::total       104904677                       # number of ReadReq hits
system.cpu.dcache.ReadReq_misses::.cpu.data      6490776                       # number of ReadReq misses
system.cpu.dcache.ReadReq_misses::total       6490776                       # number of ReadReq misses
system.cpu.dcache.ReadReq_miss_latency::.cpu.data 647205253000                       # number of ReadReq miss cycles
system.cpu.dcache.ReadReq_miss_latency::total 647205253000                       # number of ReadReq miss cycles
system.cpu.dcache.ReadReq_accesses::.cpu.data    111395453                       # number of ReadReq accesses(hits+misses)
system.cpu.dcache.ReadReq_accesses::total    111395453                       # number of ReadReq accesses(hits+misses)
system.cpu.dcache.ReadReq_miss_rate::.cpu.data     0.058268                       # miss rate for ReadReq accesses
system.cpu.dcache.ReadReq_miss_rate::total     0.058268                       # miss rate for ReadReq accesses
system.cpu.dcache.ReadReq_avg_miss_latency::.cpu.data 99711.537265                       # average ReadReq miss latency
system.cpu.dcache.ReadReq_avg_miss_latency::total 99711.537265                       # average ReadReq miss latency
system.cpu.dcache.ReadReq_mshr_misses::.cpu.data      6490776                       # number of ReadReq MSHR misses
system.cpu.dcache.ReadReq_mshr_misses::total      6490776                       # number of ReadReq MSHR misses
system.cpu.dcache.ReadReq_mshr_miss_latency::.cpu.data 634223701000                       # number of ReadReq MSHR miss cycles
system.cpu.dcache.ReadReq_mshr_miss_latency::total 634223701000                       # number of ReadReq MSHR miss cycles
system.cpu.dcache.ReadReq_mshr_miss_rate::.cpu.data     0.058268                       # mshr miss rate for ReadReq accesses
system.cpu.dcache.ReadReq_mshr_miss_rate::total     0.058268                       # mshr miss rate for ReadReq accesses
system.cpu.dcache.ReadReq_avg_mshr_miss_latency::.cpu.data 97711.537265                       # average ReadReq mshr miss latency
system.cpu.dcache.ReadReq_avg_mshr_miss_latency::total 97711.537265                       # average ReadReq mshr miss latency
system.cpu.dcache.WriteReq_hits::.cpu.data      5245572                       # number of WriteReq hits
system.cpu.dcache.WriteReq_hits::total        5245572                       # number of WriteReq hits
system.cpu.dcache.WriteReq_misses::.cpu.data       117971                       # number of WriteReq misses
system.cpu.dcache.WriteReq_misses::total       117971                       # number of WriteReq misses
system.cpu.dcache.WriteReq_miss_latency::.cpu.data   8651603000                       # number of WriteReq miss cycles
system.cpu.dcache.WriteReq_miss_latency::total   8651603000                       # number of WriteReq miss cycles
system.cpu.dcache.WriteReq_accesses::.cpu.data      5363543                       # number of WriteReq accesses(hits+misses)
system.cpu.dcache.WriteReq_accesses::total      5363543                       # number of WriteReq accesses(hits+misses)
system.cpu.dcache.WriteReq_miss_rate::.cpu.data     0.021995                       # miss rate for WriteReq accesses
system.cpu.dcache.WriteReq_miss_rate::total     0.021995                       # miss rate for WriteReq accesses
system.cpu.dcache.WriteReq_avg_miss_latency::.cpu.data 73336.692916                       # average WriteReq miss latency
system.cpu.dcache.WriteReq_avg_miss_latency::total 73336.692916                       # average WriteReq miss latency
system.cpu.dcache.WriteReq_mshr_misses::.cpu.data       117971                       # number of WriteReq MSHR misses
system.cpu.dcache.WriteReq_mshr_misses::total       117971                       # number of WriteReq MSHR misses
system.cpu.dcache.WriteReq_mshr_miss_latency::.cpu.data   8415661000                       # number of WriteReq MSHR miss cycles
system.cpu.dcache.WriteReq_mshr_miss_latency::total   8415661000                       # number of WriteReq MSHR miss cycles
system.cpu.dcache.WriteReq_mshr_miss_rate::.cpu.data     0.021995                       # mshr miss rate for WriteReq accesses
system.cpu.dcache.WriteReq_mshr_miss_rate::total     0.021995                       # mshr miss rate for WriteReq accesses
system.cpu.dcache.WriteReq_avg_mshr_miss_latency::.cpu.data 71336.692916                       # average WriteReq mshr miss latency
system.cpu.dcache.WriteReq_avg_mshr_miss_latency::total 71336.692916                       # average WriteReq mshr miss latency
system.cpu.dcache.power_state.pwrStateResidencyTicks::UNDEFINED 1703838977000                       # Cumulative time (in ticks) in various power states
system.cpu.dcache.tags.tagsinuse          1023.809399                       # Cycle average of tags in use
system.cpu.dcache.tags.total_refs           116758996                       # Total number of references to valid blocks.
system.cpu.dcache.tags.sampled_refs           6608747                       # Sample count of references to valid blocks.
system.cpu.dcache.tags.avg_refs             17.667342                       # Average number of references to valid blocks.
system.cpu.dcache.tags.warmup_cycle            224000                       # Cycle when the warmup percentage was hit.
system.cpu.dcache.tags.occ_blocks::.cpu.data  1023.809399                       # Average occupied blocks per requestor
system.cpu.dcache.tags.occ_percent::.cpu.data     0.999814                       # Average percentage of cache occupancy
system.cpu.dcache.tags.occ_percent::total     0.999814                       # Average percentage of cache occupancy
system.cpu.dcache.tags.occ_task_id_blocks::1024         1024                       # Occupied blocks per task id
system.cpu.dcache.tags.age_task_id_blocks_1024::0           28                       # Occupied blocks per task id
system.cpu.dcache.tags.age_task_id_blocks_1024::1          110                       # Occupied blocks per task id
system.cpu.dcache.tags.age_task_id_blocks_1024::2          806                       # Occupied blocks per task id
system.cpu.dcache.tags.age_task_id_blocks_1024::3           80                       # Occupied blocks per task id
system.cpu.dcache.tags.occ_task_id_percent::1024            1                       # Percentage of cache occupancy per task id
system.cpu.dcache.tags.tag_accesses         240126739                       # Number of tag accesses
system.cpu.dcache.tags.data_accesses        240126739                       # Number of data accesses
system.cpu.dcache.tags.power_state.pwrStateResidencyTicks::UNDEFINED 1703838977000                       # Cumulative time (in ticks) in various power states
system.cpu.dtb.rdAccesses                   111395454                       # TLB accesses on read requests
system.cpu.dtb.wrAccesses                     5363566                       # TLB accesses on write requests
system.cpu.dtb.rdMisses                        115974                       # TLB misses on read requests
system.cpu.dtb.wrMisses                          1462                       # TLB misses on write requests
system.cpu.dtb.walker.power_state.pwrStateResidencyTicks::UNDEFINED 1703838977000                       # Cumulative time (in ticks) in various power states
system.cpu.icache.demand_hits::.cpu.inst    413236070                       # number of demand (read+write) hits
system.cpu.icache.demand_hits::total        413236070                       # number of demand (read+write) hits
system.cpu.icache.overall_hits::.cpu.inst    413236070                       # number of overall hits
system.cpu.icache.overall_hits::total       413236070                       # number of overall hits
system.cpu.icache.demand_misses::.cpu.inst        18737                       # number of demand (read+write) misses
system.cpu.icache.demand_misses::total          18737                       # number of demand (read+write) misses
system.cpu.icache.overall_misses::.cpu.inst        18737                       # number of overall misses
system.cpu.icache.overall_misses::total         18737                       # number of overall misses
system.cpu.icache.demand_miss_latency::.cpu.inst   1238995000                       # number of demand (read+write) miss cycles
system.cpu.icache.demand_miss_latency::total   1238995000                       # number of demand (read+write) miss cycles
system.cpu.icache.overall_miss_latency::.cpu.inst   1238995000                       # number of overall miss cycles
system.cpu.icache.overall_miss_latency::total   1238995000                       # number of overall miss cycles
system.cpu.icache.demand_accesses::.cpu.inst    413254807                       # number of demand (read+write) accesses
system.cpu.icache.demand_accesses::total    413254807                       # number of demand (read+write) accesses
system.cpu.icache.overall_accesses::.cpu.inst    413254807                       # number of overall (read+write) accesses
system.cpu.icache.overall_accesses::total    413254807                       # number of overall (read+write) accesses
system.cpu.icache.demand_miss_rate::.cpu.inst     0.000045                       # miss rate for demand accesses
system.cpu.icache.demand_miss_rate::total     0.000045                       # miss rate for demand accesses
system.cpu.icache.overall_miss_rate::.cpu.inst     0.000045                       # miss rate for overall accesses
system.cpu.icache.overall_miss_rate::total     0.000045                       # miss rate for overall accesses
system.cpu.icache.demand_avg_miss_latency::.cpu.inst 66125.580402                       # average overall miss latency
system.cpu.icache.demand_avg_miss_latency::total 66125.580402                       # average overall miss latency
system.cpu.icache.overall_avg_miss_latency::.cpu.inst 66125.580402                       # average overall miss latency
system.cpu.icache.overall_avg_miss_latency::total 66125.580402                       # average overall miss latency
system.cpu.icache.blocked_cycles::no_mshrs            0                       # number of cycles access was blocked
system.cpu.icache.blocked_cycles::no_targets            0                       # number of cycles access was blocked
system.cpu.icache.blocked::no_mshrs                 0                       # number of cycles access was blocked
system.cpu.icache.blocked::no_targets               0                       # number of cycles access was blocked
system.cpu.icache.avg_blocked_cycles::no_mshrs          nan                       # average number of cycles each access was blocked
system.cpu.icache.avg_blocked_cycles::no_targets          nan                       # average number of cycles each access was blocked
system.cpu.icache.demand_mshr_misses::.cpu.inst        18737                       # number of demand (read+write) MSHR misses
system.cpu.icache.demand_mshr_misses::total        18737                       # number of demand (read+write) MSHR misses
system.cpu.icache.overall_mshr_misses::.cpu.inst        18737                       # number of overall MSHR misses
system.cpu.icache.overall_mshr_misses::total        18737                       # number of overall MSHR misses
system.cpu.icache.demand_mshr_miss_latency::.cpu.inst   1201521000                       # number of demand (read+write) MSHR miss cycles
system.cpu.icache.demand_mshr_miss_latency::total   1201521000                       # number of demand (read+write) MSHR miss cycles
system.cpu.icache.overall_mshr_miss_latency::.cpu.inst   1201521000                       # number of overall MSHR miss cycles
system.cpu.icache.overall_mshr_miss_latency::total   1201521000                       # number of overall MSHR miss cycles
system.cpu.icache.demand_mshr_miss_rate::.cpu.inst     0.000045                       # mshr miss rate for demand accesses
system.cpu.icache.demand_mshr_miss_rate::total     0.000045                       # mshr miss rate for demand accesses
system.cpu.icache.overall_mshr_miss_rate::.cpu.inst     0.000045                       # mshr miss rate for overall accesses
system.cpu.icache.overall_mshr_miss_rate::total     0.000045                       # mshr miss rate for overall accesses
system.cpu.icache.demand_avg_mshr_miss_latency::.cpu.inst 64125.580402                       # average overall mshr miss latency
system.cpu.icache.demand_avg_mshr_miss_latency::total 64125.580402                       # average overall mshr miss latency
system.cpu.icache.overall_avg_mshr_miss_latency::.cpu.inst 64125.580402                       # average overall mshr miss latency
system.cpu.icache.overall_avg_mshr_miss_latency::total 64125.580402                       # average overall mshr miss latency
system.cpu.icache.replacements                  18481                       # number of replacements
system.cpu.icache.ReadReq_hits::.cpu.inst    413236070                       # number of ReadReq hits
system.cpu.icache.ReadReq_hits::total       413236070                       # number of ReadReq hits
system.cpu.icache.ReadReq_misses::.cpu.inst        18737                       # number of ReadReq misses
system.cpu.icache.ReadReq_misses::total         18737                       # number of ReadReq misses
system.cpu.icache.ReadReq_miss_latency::.cpu.inst   1238995000                       # number of ReadReq miss cycles
system.cpu.icache.ReadReq_miss_latency::total   1238995000                       # number of ReadReq miss cycles
system.cpu.icache.ReadReq_accesses::.cpu.inst    413254807                       # number of ReadReq accesses(hits+misses)
system.cpu.icache.ReadReq_accesses::total    413254807                       # number of ReadReq accesses(hits+misses)
system.cpu.icache.ReadReq_miss_rate::.cpu.inst     0.000045                       # miss rate for ReadReq accesses
system.cpu.icache.ReadReq_miss_rate::total     0.000045                       # miss rate for ReadReq accesses
system.cpu.icache.ReadReq_avg_miss_latency::.cpu.inst 66125.580402                       # average ReadReq miss latency
system.cpu.icache.ReadReq_avg_miss_latency::total 66125.580402                       # average ReadReq miss latency
system.cpu.icache.ReadReq_mshr_misses::.cpu.inst        18737                       # number of ReadReq MSHR misses
system.cpu.icache.ReadReq_mshr_misses::total        18737                       # number of ReadReq MSHR misses
system.cpu.icache.ReadReq_mshr_miss_latency::.cpu.inst   1201521000                       # number of ReadReq MSHR miss cycles
system.cpu.icache.ReadReq_mshr_miss_latency::total   1201521000                       # number of ReadReq MSHR miss cycles
system.cpu.icache.ReadReq_mshr_miss_rate::.cpu.inst     0.000045                       # mshr miss rate for ReadReq accesses
system.cpu.icache.ReadReq_mshr_miss_rate::total     0.000045                       # mshr miss rate for ReadReq accesses
system.cpu.icache.ReadReq_avg_mshr_miss_latency::.cpu.inst 64125.580402                       # average ReadReq mshr miss latency
system.cpu.icache.ReadReq_avg_mshr_miss_latency::total 64125.580402                       # average ReadReq mshr miss latency
system.cpu.icache.power_state.pwrStateResidencyTicks::UNDEFINED 1703838977000                       # Cumulative time (in ticks) in various power states
system.cpu.icache.tags.tagsinuse           255.992303                       # Cycle average of tags in use
system.cpu.icache.tags.total_refs           413254807                       # Total number of references to valid blocks.
system.cpu.icache.tags.sampled_refs             18737                       # Sample count of references to valid blocks.
system.cpu.icache.tags.avg_refs          22055.548220                       # Average number of references to valid blocks.
system.cpu.icache.tags.warmup_cycle            107000                       # Cycle when the warmup percentage was hit.
system.cpu.icache.tags.occ_blocks::.cpu.inst   255.992303                       # Average occupied blocks per requestor
system.cpu.icache.tags.occ_percent::.cpu.inst     0.999970                       # Average percentage of cache occupancy
system.cpu.icache.tags.occ_percent::total     0.999970                       # Average percentage of cache occupancy
system.cpu.icache.tags.occ_task_id_blocks::1024          256                       # Occupied blocks per task id
system.cpu.icache.tags.age_task_id_blocks_1024::0           35                       # Occupied blocks per task id
system.cpu.icache.tags.age_task_id_blocks_1024::1          116                       # Occupied blocks per task id
system.cpu.icache.tags.age_task_id_blocks_1024::2           98                       # Occupied blocks per task id
system.cpu.icache.tags.age_task_id_blocks_1024::4            7                       # Occupied blocks per task id
system.cpu.icache.tags.occ_task_id_percent::1024            1                       # Percentage of cache occupancy per task id
system.cpu.icache.tags.tag_accesses         826528351                       # Number of tag accesses
system.cpu.icache.tags.data_accesses        826528351                       # Number of data accesses
system.cpu.icache.tags.power_state.pwrStateResidencyTicks::UNDEFINED 1703838977000                       # Cumulative time (in ticks) in various power states
system.cpu.interrupts.clk_domain.clock          16000                       # Clock period in ticks
system.cpu.itb.rdAccesses                           0                       # TLB accesses on read requests
system.cpu.itb.wrAccesses                   413254807                       # TLB accesses on write requests
system.cpu.itb.rdMisses                             0                       # TLB misses on read requests
system.cpu.itb.wrMisses                           110                       # TLB misses on write requests
system.cpu.itb.walker.power_state.pwrStateResidencyTicks::UNDEFINED 1703838977000                       # Cumulative time (in ticks) in various power states
system.cpu.power_state.pwrStateResidencyTicks::ON 1703838977000                       # Cumulative time (in ticks) in various power states
system.cpu.thread_0.numInsts                        0                       # Number of Instructions committed
system.cpu.thread_0.numOps                          0                       # Number of Ops committed
system.cpu.thread_0.numMemRefs                      0                       # Number of Memory References
system.l2bus.trans_dist::ReadResp             6509513                       # Transaction distribution
system.l2bus.trans_dist::WritebackDirty        698537                       # Transaction distribution
system.l2bus.trans_dist::CleanEvict          12387883                       # Transaction distribution
system.l2bus.trans_dist::ReadExReq             117971                       # Transaction distribution
system.l2bus.trans_dist::ReadExResp            117971                       # Transaction distribution
system.l2bus.trans_dist::ReadSharedReq        6509513                       # Transaction distribution
system.l2bus.pkt_count_system.cpu.icache.mem_side_port::system.l2cache.cpu_side_port        55955                       # Packet count per connected requestor and responder (bytes)
system.l2bus.pkt_count_system.cpu.dcache.mem_side_port::system.l2cache.cpu_side_port     19825217                       # Packet count per connected requestor and responder (bytes)
system.l2bus.pkt_count::total                19881172                       # Packet count per connected requestor and responder (bytes)
system.l2bus.pkt_size_system.cpu.icache.mem_side_port::system.l2cache.cpu_side_port      1199168                       # Cumulative packet size per connected requestor and responder (bytes)
system.l2bus.pkt_size_system.cpu.dcache.mem_side_port::system.l2cache.cpu_side_port    448774976                       # Cumulative packet size per connected requestor and responder (bytes)
system.l2bus.pkt_size::total                449974144                       # Cumulative packet size per connected requestor and responder (bytes)
system.l2bus.snoops                           6460216                       # Total snoops (count)
system.l2bus.snoopTraffic                    18891200                       # Total snoop traffic (bytes)
system.l2bus.snoop_fanout::samples           13087700                       # Request fanout histogram
system.l2bus.snoop_fanout::mean              0.001646                       # Request fanout histogram
system.l2bus.snoop_fanout::stdev             0.040532                       # Request fanout histogram
system.l2bus.snoop_fanout::underflows               0      0.00%      0.00% # Request fanout histogram
system.l2bus.snoop_fanout::0                 13066163     99.84%     99.84% # Request fanout histogram
system.l2bus.snoop_fanout::1                    21537      0.16%    100.00% # Request fanout histogram
system.l2bus.snoop_fanout::2                        0      0.00%    100.00% # Request fanout histogram
system.l2bus.snoop_fanout::overflows                0      0.00%    100.00% # Request fanout histogram
system.l2bus.snoop_fanout::min_value                0                       # Request fanout histogram
system.l2bus.snoop_fanout::max_value                1                       # Request fanout histogram
system.l2bus.snoop_fanout::total             13087700                       # Request fanout histogram
system.l2bus.power_state.pwrStateResidencyTicks::UNDEFINED 1703838977000                       # Cumulative time (in ticks) in various power states
system.l2bus.reqLayer0.occupancy          14060412000                       # Layer occupancy (ticks)
system.l2bus.reqLayer0.utilization                0.8                       # Layer utilization (%)
system.l2bus.respLayer0.occupancy            56211000                       # Layer occupancy (ticks)
system.l2bus.respLayer0.utilization               0.0                       # Layer utilization (%)
system.l2bus.respLayer1.occupancy         19826241000                       # Layer occupancy (ticks)
system.l2bus.respLayer1.utilization               1.2                       # Layer utilization (%)
system.l2cache.demand_hits::.cpu.inst            9006                       # number of demand (read+write) hits
system.l2cache.demand_hits::.cpu.data          167893                       # number of demand (read+write) hits
system.l2cache.demand_hits::total              176899                       # number of demand (read+write) hits
system.l2cache.overall_hits::.cpu.inst           9006                       # number of overall hits
system.l2cache.overall_hits::.cpu.data         167893                       # number of overall hits
system.l2cache.overall_hits::total             176899                       # number of overall hits
system.l2cache.demand_misses::.cpu.inst          9731                       # number of demand (read+write) misses
system.l2cache.demand_misses::.cpu.data       6440854                       # number of demand (read+write) misses
system.l2cache.demand_misses::total           6450585                       # number of demand (read+write) misses
system.l2cache.overall_misses::.cpu.inst         9731                       # number of overall misses
system.l2cache.overall_misses::.cpu.data      6440854                       # number of overall misses
system.l2cache.overall_misses::total          6450585                       # number of overall misses
system.l2cache.demand_miss_latency::.cpu.inst    956138000                       # number of demand (read+write) miss cycles
system.l2cache.demand_miss_latency::.cpu.data 619286854000                       # number of demand (read+write) miss cycles
system.l2cache.demand_miss_latency::total 620242992000                       # number of demand (read+write) miss cycles
system.l2cache.overall_miss_latency::.cpu.inst    956138000                       # number of overall miss cycles
system.l2cache.overall_miss_latency::.cpu.data 619286854000                       # number of overall miss cycles
system.l2cache.overall_miss_latency::total 620242992000                       # number of overall miss cycles
system.l2cache.demand_accesses::.cpu.inst        18737                       # number of demand (read+write) accesses
system.l2cache.demand_accesses::.cpu.data      6608747                       # number of demand (read+write) accesses
system.l2cache.demand_accesses::total         6627484                       # number of demand (read+write) accesses
system.l2cache.overall_accesses::.cpu.inst        18737                       # number of overall (read+write) accesses
system.l2cache.overall_accesses::.cpu.data      6608747                       # number of overall (read+write) accesses
system.l2cache.overall_accesses::total        6627484                       # number of overall (read+write) accesses
system.l2cache.demand_miss_rate::.cpu.inst     0.519347                       # miss rate for demand accesses
system.l2cache.demand_miss_rate::.cpu.data     0.974595                       # miss rate for demand accesses
system.l2cache.demand_miss_rate::total       0.973308                       # miss rate for demand accesses
system.l2cache.overall_miss_rate::.cpu.inst     0.519347                       # miss rate for overall accesses
system.l2cache.overall_miss_rate::.cpu.data     0.974595                       # miss rate for overall accesses
system.l2cache.overall_miss_rate::total      0.973308                       # miss rate for overall accesses
system.l2cache.demand_avg_miss_latency::.cpu.inst 98256.910903                       # average overall miss latency
system.l2cache.demand_avg_miss_latency::.cpu.data 96149.804669                       # average overall miss latency
system.l2cache.demand_avg_miss_latency::total 96152.983334                       # average overall miss latency
system.l2cache.overall_avg_miss_latency::.cpu.inst 98256.910903                       # average overall miss latency
system.l2cache.overall_avg_miss_latency::.cpu.data 96149.804669                       # average overall miss latency
system.l2cache.overall_avg_miss_latency::total 96152.983334                       # average overall miss latency
system.l2cache.blocked_cycles::no_mshrs             0                       # number of cycles access was blocked
system.l2cache.blocked_cycles::no_targets            0                       # number of cycles access was blocked
system.l2cache.blocked::no_mshrs                    0                       # number of cycles access was blocked
system.l2cache.blocked::no_targets                  0                       # number of cycles access was blocked
system.l2cache.avg_blocked_cycles::no_mshrs          nan                       # average number of cycles each access was blocked
system.l2cache.avg_blocked_cycles::no_targets          nan                       # average number of cycles each access was blocked
system.l2cache.writebacks::.writebacks         295175                       # number of writebacks
system.l2cache.writebacks::total               295175                       # number of writebacks
system.l2cache.demand_mshr_misses::.cpu.inst         9731                       # number of demand (read+write) MSHR misses
system.l2cache.demand_mshr_misses::.cpu.data      6440854                       # number of demand (read+write) MSHR misses
system.l2cache.demand_mshr_misses::total      6450585                       # number of demand (read+write) MSHR misses
system.l2cache.overall_mshr_misses::.cpu.inst         9731                       # number of overall MSHR misses
system.l2cache.overall_mshr_misses::.cpu.data      6440854                       # number of overall MSHR misses
system.l2cache.overall_mshr_misses::total      6450585                       # number of overall MSHR misses
system.l2cache.demand_mshr_miss_latency::.cpu.inst    761518000                       # number of demand (read+write) MSHR miss cycles
system.l2cache.demand_mshr_miss_latency::.cpu.data 490469774000                       # number of demand (read+write) MSHR miss cycles
system.l2cache.demand_mshr_miss_latency::total 491231292000                       # number of demand (read+write) MSHR miss cycles
system.l2cache.overall_mshr_miss_latency::.cpu.inst    761518000                       # number of overall MSHR miss cycles
system.l2cache.overall_mshr_miss_latency::.cpu.data 490469774000                       # number of overall MSHR miss cycles
system.l2cache.overall_mshr_miss_latency::total 491231292000                       # number of overall MSHR miss cycles
system.l2cache.demand_mshr_miss_rate::.cpu.inst     0.519347                       # mshr miss rate for demand accesses
system.l2cache.demand_mshr_miss_rate::.cpu.data     0.974595                       # mshr miss rate for demand accesses
system.l2cache.demand_mshr_miss_rate::total     0.973308                       # mshr miss rate for demand accesses
system.l2cache.overall_mshr_miss_rate::.cpu.inst     0.519347                       # mshr miss rate for overall accesses
system.l2cache.overall_mshr_miss_rate::.cpu.data     0.974595                       # mshr miss rate for overall accesses
system.l2cache.overall_mshr_miss_rate::total     0.973308                       # mshr miss rate for overall accesses
system.l2cache.demand_avg_mshr_miss_latency::.cpu.inst 78256.910903                       # average overall mshr miss latency
system.l2cache.demand_avg_mshr_miss_latency::.cpu.data 76149.804669                       # average overall mshr miss latency
system.l2cache.demand_avg_mshr_miss_latency::total 76152.983334                       # average overall mshr miss latency
system.l2cache.overall_avg_mshr_miss_latency::.cpu.inst 78256.910903                       # average overall mshr miss latency
system.l2cache.overall_avg_mshr_miss_latency::.cpu.data 76149.804669                       # average overall mshr miss latency
system.l2cache.overall_avg_mshr_miss_latency::total 76152.983334                       # average overall mshr miss latency
system.l2cache.replacements                   6460216                       # number of replacements
system.l2cache.WritebackDirty_hits::.writebacks       403362                       # number of WritebackDirty hits
system.l2cache.WritebackDirty_hits::total       403362                       # number of WritebackDirty hits
system.l2cache.WritebackDirty_accesses::.writebacks       403362                       # number of WritebackDirty accesses(hits+misses)
system.l2cache.WritebackDirty_accesses::total       403362                       # number of WritebackDirty accesses(hits+misses)
system.l2cache.CleanEvict_mshr_misses::.writebacks         3643                       # number of CleanEvict MSHR misses
system.l2cache.CleanEvict_mshr_misses::total         3643                       # number of CleanEvict MSHR misses
system.l2cache.CleanEvict_mshr_miss_rate::.writebacks          inf                       # mshr miss rate for CleanEvict accesses
system.l2cache.CleanEvict_mshr_miss_rate::total          inf                       # mshr miss rate for CleanEvict accesses
system.l2cache.ReadExReq_hits::.cpu.data        50187                       # number of ReadExReq hits
system.l2cache.ReadExReq_hits::total            50187                       # number of ReadExReq hits
system.l2cache.ReadExReq_misses::.cpu.data        67784                       # number of ReadExReq misses
system.l2cache.ReadExReq_misses::total          67784                       # number of ReadExReq misses
system.l2cache.ReadExReq_miss_latency::.cpu.data   7007489000                       # number of ReadExReq miss cycles
system.l2cache.ReadExReq_miss_latency::total   7007489000                       # number of ReadExReq miss cycles
system.l2cache.ReadExReq_accesses::.cpu.data       117971                       # number of ReadExReq accesses(hits+misses)
system.l2cache.ReadExReq_accesses::total       117971                       # number of ReadExReq accesses(hits+misses)
system.l2cache.ReadExReq_miss_rate::.cpu.data     0.574582                       # miss rate for ReadExReq accesses
system.l2cache.ReadExReq_miss_rate::total     0.574582                       # miss rate for ReadExReq accesses
system.l2cache.ReadExReq_avg_miss_latency::.cpu.data 103379.691373                       # average ReadExReq miss latency
system.l2cache.ReadExReq_avg_miss_latency::total 103379.691373                       # average ReadExReq miss latency
system.l2cache.ReadExReq_mshr_misses::.cpu.data        67784                       # number of ReadExReq MSHR misses
system.l2cache.ReadExReq_mshr_misses::total        67784                       # number of ReadExReq MSHR misses
system.l2cache.ReadExReq_mshr_miss_latency::.cpu.data   5651809000                       # number of ReadExReq MSHR miss cycles
system.l2cache.ReadExReq_mshr_miss_latency::total   5651809000                       # number of ReadExReq MSHR miss cycles
system.l2cache.ReadExReq_mshr_miss_rate::.cpu.data     0.574582                       # mshr miss rate for ReadExReq accesses
system.l2cache.ReadExReq_mshr_miss_rate::total     0.574582                       # mshr miss rate for ReadExReq accesses
system.l2cache.ReadExReq_avg_mshr_miss_latency::.cpu.data 83379.691373                       # average ReadExReq mshr miss latency
system.l2cache.ReadExReq_avg_mshr_miss_latency::total 83379.691373                       # average ReadExReq mshr miss latency
system.l2cache.ReadSharedReq_hits::.cpu.inst         9006                       # number of ReadSharedReq hits
system.l2cache.ReadSharedReq_hits::.cpu.data       117706                       # number of ReadSharedReq hits
system.l2cache.ReadSharedReq_hits::total       126712                       # number of ReadSharedReq hits
system.l2cache.ReadSharedReq_misses::.cpu.inst         9731                       # number of ReadSharedReq misses
system.l2cache.ReadSharedReq_misses::.cpu.data      6373070                       # number of ReadSharedReq misses
system.l2cache.ReadSharedReq_misses::total      6382801                       # number of ReadSharedReq misses
system.l2cache.ReadSharedReq_miss_latency::.cpu.inst    956138000                       # number of ReadSharedReq miss cycles
system.l2cache.ReadSharedReq_miss_latency::.cpu.data 612279365000                       # number of ReadSharedReq miss cycles
system.l2cache.ReadSharedReq_miss_latency::total 613235503000                       # number of ReadSharedReq miss cycles
system.l2cache.ReadSharedReq_accesses::.cpu.inst        18737                       # number of ReadSharedReq accesses(hits+misses)
system.l2cache.ReadSharedReq_accesses::.cpu.data      6490776                       # number of ReadSharedReq accesses(hits+misses)
system.l2cache.ReadSharedReq_accesses::total      6509513                       # number of ReadSharedReq accesses(hits+misses)
system.l2cache.ReadSharedReq_miss_rate::.cpu.inst     0.519347                       # miss rate for ReadSharedReq accesses
system.l2cache.ReadSharedReq_miss_rate::.cpu.data     0.981866                       # miss rate for ReadSharedReq accesses
system.l2cache.ReadSharedReq_miss_rate::total     0.980534                       # miss rate for ReadSharedReq accesses
system.l2cache.ReadSharedReq_avg_miss_latency::.cpu.inst 98256.910903                       # average ReadSharedReq miss latency
system.l2cache.ReadSharedReq_avg_miss_latency::.cpu.data 96072.907563                       # average ReadSharedReq miss latency
system.l2cache.ReadSharedReq_avg_miss_latency::total 96076.237219                       # average ReadSharedReq miss latency
system.l2cache.ReadSharedReq_mshr_misses::.cpu.inst         9731                       # number of ReadSharedReq MSHR misses
system.l2cache.ReadSharedReq_mshr_misses::.cpu.data      6373070                       # number of ReadSharedReq MSHR misses
system.l2cache.ReadSharedReq_mshr_misses::total      6382801                       # number of ReadSharedReq MSHR misses
system.l2cache.ReadSharedReq_mshr_miss_latency::.cpu.inst    761518000                       # number of ReadSharedReq MSHR miss cycles
system.l2cache.ReadSharedReq_mshr_miss_latency::.cpu.data 484817965000                       # number of ReadSharedReq MSHR miss cycles
system.l2cache.ReadSharedReq_mshr_miss_latency::total 485579483000                       # number of ReadSharedReq MSHR miss cycles
system.l2cache.ReadSharedReq_mshr_miss_rate::.cpu.inst     0.519347                       # mshr miss rate for ReadSharedReq accesses
system.l2cache.ReadSharedReq_mshr_miss_rate::.cpu.data     0.981866                       # mshr miss rate for ReadSharedReq accesses
system.l2cache.ReadSharedReq_mshr_miss_rate::total     0.980534                       # mshr miss rate for ReadSharedReq accesses
system.l2cache.ReadSharedReq_avg_mshr_miss_latency::.cpu.inst 78256.910903                       # average ReadSharedReq mshr miss latency
system.l2cache.ReadSharedReq_avg_mshr_miss_latency::.cpu.data 76072.907563                       # average ReadSharedReq mshr miss latency
system.l2cache.ReadSharedReq_avg_mshr_miss_latency::total 76076.237219                       # average ReadSharedReq mshr miss latency
system.l2cache.power_state.pwrStateResidencyTicks::UNDEFINED 1703838977000                       # Cumulative time (in ticks) in various power states
system.l2cache.tags.tagsinuse             8179.122735                       # Cycle average of tags in use
system.l2cache.tags.total_refs               13250045                       # Total number of references to valid blocks.
system.l2cache.tags.sampled_refs              6468408                       # Sample count of references to valid blocks.
system.l2cache.tags.avg_refs                 2.048424                       # Average number of references to valid blocks.
system.l2cache.tags.warmup_cycle                86000                       # Cycle when the warmup percentage was hit.
system.l2cache.tags.occ_blocks::.writebacks    17.085129                       # Average occupied blocks per requestor
system.l2cache.tags.occ_blocks::.cpu.inst    10.479689                       # Average occupied blocks per requestor
system.l2cache.tags.occ_blocks::.cpu.data  8151.557917                       # Average occupied blocks per requestor
system.l2cache.tags.occ_percent::.writebacks     0.002086                       # Average percentage of cache occupancy
system.l2cache.tags.occ_percent::.cpu.inst     0.001279                       # Average percentage of cache occupancy
system.l2cache.tags.occ_percent::.cpu.data     0.995063                       # Average percentage of cache occupancy
system.l2cache.tags.occ_percent::total       0.998428                       # Average percentage of cache occupancy
system.l2cache.tags.occ_task_id_blocks::1024         8192                       # Occupied blocks per task id
system.l2cache.tags.age_task_id_blocks_1024::0           59                       # Occupied blocks per task id
system.l2cache.tags.age_task_id_blocks_1024::1          149                       # Occupied blocks per task id
system.l2cache.tags.age_task_id_blocks_1024::2         2176                       # Occupied blocks per task id
system.l2cache.tags.age_task_id_blocks_1024::3         5808                       # Occupied blocks per task id
system.l2cache.tags.occ_task_id_percent::1024            1                       # Percentage of cache occupancy per task id
system.l2cache.tags.tag_accesses            112497912                       # Number of tag accesses
system.l2cache.tags.data_accesses           112497912                       # Number of data accesses
system.l2cache.tags.power_state.pwrStateResidencyTicks::UNDEFINED 1703838977000                       # Cumulative time (in ticks) in various power states
system.mem_ctrl.avgPriority_.writebacks::samples    295175.00                       # Average QoS priority value for accepted requests
system.mem_ctrl.avgPriority_.cpu.inst::samples      9731.00                       # Average QoS priority value for accepted requests
system.mem_ctrl.avgPriority_.cpu.data::samples   6431891.00                       # Average QoS priority value for accepted requests
system.mem_ctrl.priorityMinLatency       0.000000018750                       # per QoS priority minimum request to response latency (s)
system.mem_ctrl.priorityMaxLatency       0.006376343500                       # per QoS priority maximum request to response latency (s)
system.mem_ctrl.numReadWriteTurnArounds         17177                       # Number of turnarounds from READ to WRITE
system.mem_ctrl.numWriteReadTurnArounds         17177                       # Number of turnarounds from WRITE to READ
system.mem_ctrl.numStayReadState             13608235                       # Number of times bus staying in READ state
system.mem_ctrl.numStayWriteState              278140                       # Number of times bus staying in WRITE state
system.mem_ctrl.readReqs                      6450585                       # Number of read requests accepted
system.mem_ctrl.writeReqs                      295175                       # Number of write requests accepted
system.mem_ctrl.readBursts                    6450585                       # Number of controller read bursts, including those serviced by the write queue
system.mem_ctrl.writeBursts                    295175                       # Number of controller write bursts, including those merged in the write queue
system.mem_ctrl.servicedByWrQ                    8963                       # Number of controller read bursts serviced by the write queue
system.mem_ctrl.mergedWrBursts                      0                       # Number of controller write bursts merged with an existing one
system.mem_ctrl.neitherReadNorWriteReqs             0                       # Number of requests that are neither read nor write
system.mem_ctrl.avgRdQLen                        1.00                       # Average read queue length when enqueuing
system.mem_ctrl.avgWrQLen                       24.82                       # Average write queue length when enqueuing
system.mem_ctrl.numRdRetry                          0                       # Number of times read queue was full causing retry
system.mem_ctrl.numWrRetry                          0                       # Number of times write queue was full causing retry
system.mem_ctrl.readPktSize::0                      0                       # Read request sizes (log2)
system.mem_ctrl.readPktSize::1                      0                       # Read request sizes (log2)
system.mem_ctrl.readPktSize::2                      0                       # Read request sizes (log2)
system.mem_ctrl.readPktSize::3                      0                       # Read request sizes (log2)
system.mem_ctrl.readPktSize::4                      0                       # Read request sizes (log2)
system.mem_ctrl.readPktSize::5                      0                       # Read request sizes (log2)
system.mem_ctrl.readPktSize::6                6450585                       # Read request sizes (log2)
system.mem_ctrl.writePktSize::0                     0                       # Write request sizes (log2)
system.mem_ctrl.writePktSize::1                     0                       # Write request sizes (log2)
system.mem_ctrl.writePktSize::2                     0                       # Write request sizes (log2)
system.mem_ctrl.writePktSize::3                     0                       # Write request sizes (log2)
system.mem_ctrl.writePktSize::4                     0                       # Write request sizes (log2)
system.mem_ctrl.writePktSize::5                     0                       # Write request sizes (log2)
system.mem_ctrl.writePktSize::6                295175                       # Write request sizes (log2)
system.mem_ctrl.rdQLenPdf::0                  6441540                       # What read queue length does an incoming req see
system.mem_ctrl.rdQLenPdf::1                       82                       # What read queue length does an incoming req see
system.mem_ctrl.rdQLenPdf::2                        0                       # What read queue length does an incoming req see
system.mem_ctrl.rdQLenPdf::3                        0                       # What read queue length does an incoming req see
system.mem_ctrl.rdQLenPdf::4                        0                       # What read queue length does an incoming req see
system.mem_ctrl.rdQLenPdf::5                        0                       # What read queue length does an incoming req see
system.mem_ctrl.rdQLenPdf::6                        0                       # What read queue length does an incoming req see
system.mem_ctrl.rdQLenPdf::7                        0                       # What read queue length does an incoming req see
system.mem_ctrl.rdQLenPdf::8                        0                       # What read queue length does an incoming req see
system.mem_ctrl.rdQLenPdf::9                        0                       # What read queue length does an incoming req see
system.mem_ctrl.rdQLenPdf::10                       0                       # What read queue length does an incoming req see
system.mem_ctrl.rdQLenPdf::11                       0                       # What read queue length does an incoming req see
system.mem_ctrl.rdQLenPdf::12                       0                       # What read queue length does an incoming req see
system.mem_ctrl.rdQLenPdf::13                       0                       # What read queue length does an incoming req see
system.mem_ctrl.rdQLenPdf::14                       0                       # What read queue length does an incoming req see
system.mem_ctrl.rdQLenPdf::15                       0                       # What read queue length does an incoming req see
system.mem_ctrl.rdQLenPdf::16                       0                       # What read queue length does an incoming req see
system.mem_ctrl.rdQLenPdf::17                       0                       # What read queue length does an incoming req see
system.mem_ctrl.rdQLenPdf::18                       0                       # What read queue length does an incoming req see
system.mem_ctrl.rdQLenPdf::19                       0                       # What read queue length does an incoming req see
system.mem_ctrl.rdQLenPdf::20                       0                       # What read queue length does an incoming req see
system.mem_ctrl.rdQLenPdf::21                       0                       # What read queue length does an incoming req see
system.mem_ctrl.rdQLenPdf::22                       0                       # What read queue length does an incoming req see
system.mem_ctrl.rdQLenPdf::23                       0                       # What read queue length does an incoming req see
system.mem_ctrl.rdQLenPdf::24                       0                       # What read queue length does an incoming req see
system.mem_ctrl.rdQLenPdf::25                       0                       # What read queue length does an incoming req see
system.mem_ctrl.rdQLenPdf::26                       0                       # What read queue length does an incoming req see
system.mem_ctrl.rdQLenPdf::27                       0                       # What read queue length does an incoming req see
system.mem_ctrl.rdQLenPdf::28                       0                       # What read queue length does an incoming req see
system.mem_ctrl.rdQLenPdf::29                       0                       # What read queue length does an incoming req see
system.mem_ctrl.rdQLenPdf::30                       0                       # What read queue length does an incoming req see
system.mem_ctrl.rdQLenPdf::31                       0                       # What read queue length does an incoming req see
system.mem_ctrl.wrQLenPdf::0                        1                       # What write queue length does an incoming req see
system.mem_ctrl.wrQLenPdf::1                        1                       # What write queue length does an incoming req see
system.mem_ctrl.wrQLenPdf::2                        1                       # What write queue length does an incoming req see
system.mem_ctrl.wrQLenPdf::3                        1                       # What write queue length does an incoming req see
system.mem_ctrl.wrQLenPdf::4                        1                       # What write queue length does an incoming req see
system.mem_ctrl.wrQLenPdf::5                        1                       # What write queue length does an incoming req see
system.mem_ctrl.wrQLenPdf::6                        1                       # What write queue length does an incoming req see
system.mem_ctrl.wrQLenPdf::7                        1                       # What write queue length does an incoming req see
system.mem_ctrl.wrQLenPdf::8                        1                       # What write queue length does an incoming req see
system.mem_ctrl.wrQLenPdf::9                        1                       # What write queue length does an incoming req see
system.mem_ctrl.wrQLenPdf::10                       1                       # What write queue length does an incoming req see
system.mem_ctrl.wrQLenPdf::11                       1                       # What write queue length does an incoming req see
system.mem_ctrl.wrQLenPdf::12                       1                       # What write queue length does an incoming req see
system.mem_ctrl.wrQLenPdf::13                       1                       # What write queue length does an incoming req see
system.mem_ctrl.wrQLenPdf::14                       1                       # What write queue length does an incoming req see
system.mem_ctrl.wrQLenPdf::15                   10137                       # What write queue length does an incoming req see
system.mem_ctrl.wrQLenPdf::16                   10180                       # What write queue length does an incoming req see
system.mem_ctrl.wrQLenPdf::17                   17175                       # What write queue length does an incoming req see
system.mem_ctrl.wrQLenPdf::18                   17177                       # What write queue length does an incoming req see
system.mem_ctrl.wrQLenPdf::19                   17178                       # What write queue length does an incoming req see
system.mem_ctrl.wrQLenPdf::20                   17177                       # What write queue length does an incoming req see
system.mem_ctrl.wrQLenPdf::21                   17177                       # What write queue length does an incoming req see
system.mem_ctrl.wrQLenPdf::22                   17178                       # What write queue length does an incoming req see
system.mem_ctrl.wrQLenPdf::23                   17184                       # What write queue length does an incoming req see
system.mem_ctrl.wrQLenPdf::24                   17177                       # What write queue length does an incoming req see
system.mem_ctrl.wrQLenPdf::25                   17177                       # What write queue length does an incoming req see
system.mem_ctrl.wrQLenPdf::26                   17179                       # What write queue length does an incoming req see
system.mem_ctrl.wrQLenPdf::27                   17177                       # What write queue length does an incoming req see
system.mem_ctrl.wrQLenPdf::28                   17177                       # What write queue length does an incoming req see
system.mem_ctrl.wrQLenPdf::29                   17179                       # What write queue length does an incoming req see
system.mem_ctrl.wrQLenPdf::30                   17177                       # What write queue length does an incoming req see
system.mem_ctrl.wrQLenPdf::31                   17177                       # What write queue length does an incoming req see
system.mem_ctrl.wrQLenPdf::32                   17177                       # What write queue length does an incoming req see
system.mem_ctrl.wrQLenPdf::33                       0                       # What write queue length does an incoming req see
system.mem_ctrl.wrQLenPdf::34                       0                       # What write queue length does an incoming req see
system.mem_ctrl.wrQLenPdf::35                       0                       # What write queue length does an incoming req see
system.mem_ctrl.wrQLenPdf::36                       0                       # What write queue length does an incoming req see
system.mem_ctrl.wrQLenPdf::37                       0                       # What write queue length does an incoming req see
system.mem_ctrl.wrQLenPdf::38                       0                       # What write queue length does an incoming req see
system.mem_ctrl.wrQLenPdf::39                       0                       # What write queue length does an incoming req see
system.mem_ctrl.wrQLenPdf::40                       0                       # What write queue length does an incoming req see
system.mem_ctrl.wrQLenPdf::41                       0                       # What write queue length does an incoming req see
system.mem_ctrl.wrQLenPdf::42                       0                       # What write queue length does an incoming req see
system.mem_ctrl.wrQLenPdf::43                       0                       # What write queue length does an incoming req see
system.mem_ctrl.wrQLenPdf::44                       0                       # What write queue length does an incoming req see
system.mem_ctrl.wrQLenPdf::45                       0                       # What write queue length does an incoming req see
system.mem_ctrl.wrQLenPdf::46                       0                       # What write queue length does an incoming req see
system.mem_ctrl.wrQLenPdf::47                       0                       # What write queue length does an incoming req see
system.mem_ctrl.wrQLenPdf::48                       0                       # What write queue length does an incoming req see
system.mem_ctrl.wrQLenPdf::49                       0                       # What write queue length does an incoming req see
system.mem_ctrl.wrQLenPdf::50                       0                       # What write queue length does an incoming req see
system.mem_ctrl.wrQLenPdf::51                       0                       # What write queue length does an incoming req see
system.mem_ctrl.wrQLenPdf::52                       0                       # What write queue length does an incoming req see
system.mem_ctrl.wrQLenPdf::53                       0                       # What write queue length does an incoming req see
system.mem_ctrl.wrQLenPdf::54                       0                       # What write queue length does an incoming req see
system.mem_ctrl.wrQLenPdf::55                       0                       # What write queue length does an incoming req see
system.mem_ctrl.wrQLenPdf::56                       0                       # What write queue length does an incoming req see
system.mem_ctrl.wrQLenPdf::57                       0                       # What write queue length does an incoming req see
system.mem_ctrl.wrQLenPdf::58                       0                       # What write queue length does an incoming req see
system.mem_ctrl.wrQLenPdf::59                       0                       # What write queue length does an incoming req see
system.mem_ctrl.wrQLenPdf::60                       0                       # What write queue length does an incoming req see
system.mem_ctrl.wrQLenPdf::61                       0                       # What write queue length does an incoming req see
system.mem_ctrl.wrQLenPdf::62                       0                       # What write queue length does an incoming req see
system.mem_ctrl.wrQLenPdf::63                       0                       # What write queue length does an incoming req see
system.mem_ctrl.rdPerTurnAround::samples        17177                       # Reads before turning the bus around for writes
system.mem_ctrl.rdPerTurnAround::mean      374.806485                       # Reads before turning the bus around for writes
system.mem_ctrl.rdPerTurnAround::gmean      55.331680                       # Reads before turning the bus around for writes
system.mem_ctrl.rdPerTurnAround::stdev    1223.720235                       # Reads before turning the bus around for writes
system.mem_ctrl.rdPerTurnAround::0-511          15146     88.18%     88.18% # Reads before turning the bus around for writes
system.mem_ctrl.rdPerTurnAround::512-1023          781      4.55%     92.72% # Reads before turning the bus around for writes
system.mem_ctrl.rdPerTurnAround::1024-1535           19      0.11%     92.83% # Reads before turning the bus around for writes
system.mem_ctrl.rdPerTurnAround::2048-2559          400      2.33%     95.16% # Reads before turning the bus around for writes
system.mem_ctrl.rdPerTurnAround::2560-3071          415      2.42%     97.58% # Reads before turning the bus around for writes
system.mem_ctrl.rdPerTurnAround::6656-7167          400      2.33%     99.91% # Reads before turning the bus around for writes
system.mem_ctrl.rdPerTurnAround::8192-8703            1      0.01%     99.91% # Reads before turning the bus around for writes
system.mem_ctrl.rdPerTurnAround::8704-9215            7      0.04%     99.95% # Reads before turning the bus around for writes
system.mem_ctrl.rdPerTurnAround::9216-9727            1      0.01%     99.96% # Reads before turning the bus around for writes
system.mem_ctrl.rdPerTurnAround::9728-10239            6      0.03%     99.99% # Reads before turning the bus around for writes
system.mem_ctrl.rdPerTurnAround::10240-10751            1      0.01%    100.00% # Reads before turning the bus around for writes
system.mem_ctrl.rdPerTurnAround::total          17177                       # Reads before turning the bus around for writes
system.mem_ctrl.wrPerTurnAround::samples        17177                       # Writes before turning the bus around for reads
system.mem_ctrl.wrPerTurnAround::mean       17.183443                       # Writes before turning the bus around for reads
system.mem_ctrl.wrPerTurnAround::gmean      17.154915                       # Writes before turning the bus around for reads
system.mem_ctrl.wrPerTurnAround::stdev       0.982763                       # Writes before turning the bus around for reads
system.mem_ctrl.wrPerTurnAround::16              6998     40.74%     40.74% # Writes before turning the bus around for reads
system.mem_ctrl.wrPerTurnAround::17                40      0.23%     40.97% # Writes before turning the bus around for reads
system.mem_ctrl.wrPerTurnAround::18             10129     58.97%     99.94% # Writes before turning the bus around for reads
system.mem_ctrl.wrPerTurnAround::19                10      0.06%    100.00% # Writes before turning the bus around for reads
system.mem_ctrl.wrPerTurnAround::total          17177                       # Writes before turning the bus around for reads
system.mem_ctrl.bytesReadWrQ                   573632                       # Total number of bytes read from write queue
system.mem_ctrl.bytesReadSys                412837440                       # Total read bytes from the system interface side
system.mem_ctrl.bytesWrittenSys              18891200                       # Total written bytes from the system interface side
system.mem_ctrl.avgRdBWSys                     242.30                       # Average system read bandwidth in MiByte/s
system.mem_ctrl.avgWrBWSys                      11.09                       # Average system write bandwidth in MiByte/s
system.mem_ctrl.totGap                   1703838878000                       # Total gap between requests
system.mem_ctrl.avgGap                      252579.23                       # Average gap between requests
system.mem_ctrl.requestorReadBytes::.cpu.inst       622784                       # Per-requestor bytes read from memory
system.mem_ctrl.requestorReadBytes::.cpu.data    411641024                       # Per-requestor bytes read from memory
system.mem_ctrl.requestorWriteBytes::.writebacks     18890240                       # Per-requestor bytes write to memory
system.mem_ctrl.requestorReadRate::.cpu.inst 365518.108463837532                       # Per-requestor bytes read from memory rate (Bytes/sec)
system.mem_ctrl.requestorReadRate::.cpu.data 241596201.024106532335                       # Per-requestor bytes read from memory rate (Bytes/sec)
system.mem_ctrl.requestorWriteRate::.writebacks 11086869.272858522832                       # Per-requestor bytes write to memory rate (Bytes/sec)
system.mem_ctrl.requestorReadAccesses::.cpu.inst         9731                       # Per-requestor read serviced memory accesses
system.mem_ctrl.requestorReadAccesses::.cpu.data      6440854                       # Per-requestor read serviced memory accesses
system.mem_ctrl.requestorWriteAccesses::.writebacks       295175                       # Per-requestor write serviced memory accesses
system.mem_ctrl.requestorReadTotalLat::.cpu.inst    261972500                       # Per-requestor read total memory access latency
system.mem_ctrl.requestorReadTotalLat::.cpu.data 160204291000                       # Per-requestor read total memory access latency
system.mem_ctrl.requestorWriteTotalLat::.writebacks 38209525004250                       # Per-requestor write total memory access latency
system.mem_ctrl.requestorReadAvgLat::.cpu.inst     26921.44                       # Per-requestor read average memory access latency
system.mem_ctrl.requestorReadAvgLat::.cpu.data     24873.14                       # Per-requestor read average memory access latency
system.mem_ctrl.requestorWriteAvgLat::.writebacks 129447022.97                       # Per-requestor write average memory access latency
system.mem_ctrl.dram.bytes_read::.cpu.inst       622784                       # Number of bytes read from this memory
system.mem_ctrl.dram.bytes_read::.cpu.data    412214656                       # Number of bytes read from this memory
system.mem_ctrl.dram.bytes_read::total      412837440                       # Number of bytes read from this memory
system.mem_ctrl.dram.bytes_inst_read::.cpu.inst       622784                       # Number of instructions bytes read from this memory
system.mem_ctrl.dram.bytes_inst_read::total       622784                       # Number of instructions bytes read from this memory
system.mem_ctrl.dram.bytes_written::.writebacks     18891200                       # Number of bytes written to this memory
system.mem_ctrl.dram.bytes_written::total     18891200                       # Number of bytes written to this memory
system.mem_ctrl.dram.num_reads::.cpu.inst         9731                       # Number of read requests responded to by this memory
system.mem_ctrl.dram.num_reads::.cpu.data      6440854                       # Number of read requests responded to by this memory
system.mem_ctrl.dram.num_reads::total         6450585                       # Number of read requests responded to by this memory
system.mem_ctrl.dram.num_writes::.writebacks       295175                       # Number of write requests responded to by this memory
system.mem_ctrl.dram.num_writes::total         295175                       # Number of write requests responded to by this memory
system.mem_ctrl.dram.bw_read::.cpu.inst        365518                       # Total read bandwidth from this memory (bytes/s)
system.mem_ctrl.dram.bw_read::.cpu.data     241932871                       # Total read bandwidth from this memory (bytes/s)
system.mem_ctrl.dram.bw_read::total         242298389                       # Total read bandwidth from this memory (bytes/s)
system.mem_ctrl.dram.bw_inst_read::.cpu.inst       365518                       # Instruction read bandwidth from this memory (bytes/s)
system.mem_ctrl.dram.bw_inst_read::total       365518                       # Instruction read bandwidth from this memory (bytes/s)
system.mem_ctrl.dram.bw_write::.writebacks     11087433                       # Write bandwidth from this memory (bytes/s)
system.mem_ctrl.dram.bw_write::total         11087433                       # Write bandwidth from this memory (bytes/s)
system.mem_ctrl.dram.bw_total::.writebacks     11087433                       # Total bandwidth to/from this memory (bytes/s)
system.mem_ctrl.dram.bw_total::.cpu.inst       365518                       # Total bandwidth to/from this memory (bytes/s)
system.mem_ctrl.dram.bw_total::.cpu.data    241932871                       # Total bandwidth to/from this memory (bytes/s)
system.mem_ctrl.dram.bw_total::total        253385822                       # Total bandwidth to/from this memory (bytes/s)
system.mem_ctrl.dram.readBursts               6441622                       # Number of DRAM read bursts
system.mem_ctrl.dram.writeBursts               295160                       # Number of DRAM write bursts
system.mem_ctrl.dram.perBankRdBursts::0        432456                       # Per bank write bursts
system.mem_ctrl.dram.perBankRdBursts::1        388838                       # Per bank write bursts
system.mem_ctrl.dram.perBankRdBursts::2        378818                       # Per bank write bursts
system.mem_ctrl.dram.perBankRdBursts::3        378942                       # Per bank write bursts
system.mem_ctrl.dram.perBankRdBursts::4        380181                       # Per bank write bursts
system.mem_ctrl.dram.perBankRdBursts::5        403873                       # Per bank write bursts
system.mem_ctrl.dram.perBankRdBursts::6        438440                       # Per bank write bursts
system.mem_ctrl.dram.perBankRdBursts::7        405210                       # Per bank write bursts
system.mem_ctrl.dram.perBankRdBursts::8        408336                       # Per bank write bursts
system.mem_ctrl.dram.perBankRdBursts::9        375343                       # Per bank write bursts
system.mem_ctrl.dram.perBankRdBursts::10       378319                       # Per bank write bursts
system.mem_ctrl.dram.perBankRdBursts::11       378759                       # Per bank write bursts
system.mem_ctrl.dram.perBankRdBursts::12       395828                       # Per bank write bursts
system.mem_ctrl.dram.perBankRdBursts::13       431989                       # Per bank write bursts
system.mem_ctrl.dram.perBankRdBursts::14       432501                       # Per bank write bursts
system.mem_ctrl.dram.perBankRdBursts::15       433789                       # Per bank write bursts
system.mem_ctrl.dram.perBankWrBursts::0          5654                       # Per bank write bursts
system.mem_ctrl.dram.perBankWrBursts::1          5266                       # Per bank write bursts
system.mem_ctrl.dram.perBankWrBursts::2          5106                       # Per bank write bursts
system.mem_ctrl.dram.perBankWrBursts::3          5317                       # Per bank write bursts
system.mem_ctrl.dram.perBankWrBursts::4          6573                       # Per bank write bursts
system.mem_ctrl.dram.perBankWrBursts::5         29680                       # Per bank write bursts
system.mem_ctrl.dram.perBankWrBursts::6         51539                       # Per bank write bursts
system.mem_ctrl.dram.perBankWrBursts::7          6708                       # Per bank write bursts
system.mem_ctrl.dram.perBankWrBursts::8         41228                       # Per bank write bursts
system.mem_ctrl.dram.perBankWrBursts::9         53896                       # Per bank write bursts
system.mem_ctrl.dram.perBankWrBursts::10        56637                       # Per bank write bursts
system.mem_ctrl.dram.perBankWrBursts::11         5756                       # Per bank write bursts
system.mem_ctrl.dram.perBankWrBursts::12         4958                       # Per bank write bursts
system.mem_ctrl.dram.perBankWrBursts::13         5294                       # Per bank write bursts
system.mem_ctrl.dram.perBankWrBursts::14         5194                       # Per bank write bursts
system.mem_ctrl.dram.perBankWrBursts::15         6354                       # Per bank write bursts
system.mem_ctrl.dram.totQLat              39685851000                       # Total ticks spent queuing
system.mem_ctrl.dram.totBusLat            32208110000                       # Total ticks spent in databus transfers
system.mem_ctrl.dram.totMemAccLat        160466263500                       # Total ticks spent from burst creation until serviced by the DRAM
system.mem_ctrl.dram.avgQLat                  6160.85                       # Average queueing delay per DRAM burst
system.mem_ctrl.dram.avgBusLat                5000.00                       # Average bus latency per DRAM burst
system.mem_ctrl.dram.avgMemAccLat            24910.85                       # Average memory access latency per DRAM burst
system.mem_ctrl.dram.readRowHits              5530333                       # Number of row buffer hits during reads
system.mem_ctrl.dram.writeRowHits              239924                       # Number of row buffer hits during writes
system.mem_ctrl.dram.readRowHitRate             85.85                       # Row buffer hit rate for reads
system.mem_ctrl.dram.writeRowHitRate            81.29                       # Row buffer hit rate for writes
system.mem_ctrl.dram.bytesPerActivate::samples       966519                       # Bytes accessed per row activation
system.mem_ctrl.dram.bytesPerActivate::mean   446.088514                       # Bytes accessed per row activation
system.mem_ctrl.dram.bytesPerActivate::gmean   281.092421                       # Bytes accessed per row activation
system.mem_ctrl.dram.bytesPerActivate::stdev   360.082213                       # Bytes accessed per row activation
system.mem_ctrl.dram.bytesPerActivate::0-127       233048     24.11%     24.11% # Bytes accessed per row activation
system.mem_ctrl.dram.bytesPerActivate::128-255       156013     16.14%     40.25% # Bytes accessed per row activation
system.mem_ctrl.dram.bytesPerActivate::256-383        91704      9.49%     49.74% # Bytes accessed per row activation
system.mem_ctrl.dram.bytesPerActivate::384-511        98684     10.21%     59.95% # Bytes accessed per row activation
system.mem_ctrl.dram.bytesPerActivate::512-639        15728      1.63%     61.58% # Bytes accessed per row activation
system.mem_ctrl.dram.bytesPerActivate::640-767       171242     17.72%     79.30% # Bytes accessed per row activation
system.mem_ctrl.dram.bytesPerActivate::768-895         9850      1.02%     80.32% # Bytes accessed per row activation
system.mem_ctrl.dram.bytesPerActivate::896-1023         9483      0.98%     81.30% # Bytes accessed per row activation
system.mem_ctrl.dram.bytesPerActivate::1024-1151       180767     18.70%    100.00% # Bytes accessed per row activation
system.mem_ctrl.dram.bytesPerActivate::total       966519                       # Bytes accessed per row activation
system.mem_ctrl.dram.bytesRead              412263808                       # Total number of bytes read from DRAM
system.mem_ctrl.dram.bytesWritten            18890240                       # Total number of bytes written to DRAM
system.mem_ctrl.dram.avgRdBW               241.961719                       # Average DRAM read bandwidth in MiBytes/s
system.mem_ctrl.dram.avgWrBW                11.086869                       # Average DRAM write bandwidth in MiBytes/s
system.mem_ctrl.dram.peakBW                  12800.00                       # Theoretical peak bandwidth in MiByte/s
system.mem_ctrl.dram.busUtil                     1.98                       # Data bus utilization in percentage
system.mem_ctrl.dram.busUtilRead                 1.89                       # Data bus utilization in percentage for reads
system.mem_ctrl.dram.busUtilWrite                0.09                       # Data bus utilization in percentage for writes
system.mem_ctrl.dram.pageHitRate                85.65                       # Row buffer hit rate, read and write combined
system.mem_ctrl.dram.power_state.pwrStateResidencyTicks::UNDEFINED 1703838977000                       # Cumulative time (in ticks) in various power states
system.mem_ctrl.dram.rank0.actEnergy       2755718700                       # Energy for activate commands per rank (pJ)
system.mem_ctrl.dram.rank0.preEnergy       1464687840                       # Energy for precharge commands per rank (pJ)
system.mem_ctrl.dram.rank0.readEnergy     22896252120                       # Energy for read commands per rank (pJ)
system.mem_ctrl.dram.rank0.writeEnergy      604700460                       # Energy for write commands per rank (pJ)
system.mem_ctrl.dram.rank0.refreshEnergy 134499212640.000015                       # Energy for refresh commands per rank (pJ)
system.mem_ctrl.dram.rank0.actBackEnergy 555740059770                       # Energy for active background per rank (pJ)
system.mem_ctrl.dram.rank0.preBackEnergy 186282538080                       # Energy for precharge background per rank (pJ)
system.mem_ctrl.dram.rank0.actPowerDownEnergy            0                       # Energy for active power-down per rank (pJ)
system.mem_ctrl.dram.rank0.prePowerDownEnergy            0                       # Energy for precharge power-down per rank (pJ)
system.mem_ctrl.dram.rank0.selfRefreshEnergy            0                       # Energy for self refresh per rank (pJ)
system.mem_ctrl.dram.rank0.totalEnergy   904243169610                       # Total energy per rank (pJ)
system.mem_ctrl.dram.rank0.averagePower    530.709288                       # Core power per rank (mW)
system.mem_ctrl.dram.rank0.totalIdleTime            0                       # Total Idle time Per DRAM Rank
system.mem_ctrl.dram.rank0.pwrStateTime::IDLE 479077108500                       # Time in different power states
system.mem_ctrl.dram.rank0.pwrStateTime::REF  56894760000                       # Time in different power states
system.mem_ctrl.dram.rank0.pwrStateTime::SREF            0                       # Time in different power states
system.mem_ctrl.dram.rank0.pwrStateTime::PRE_PDN            0                       # Time in different power states
system.mem_ctrl.dram.rank0.pwrStateTime::ACT 1167867108500                       # Time in different power states
system.mem_ctrl.dram.rank0.pwrStateTime::ACT_PDN            0                       # Time in different power states
system.mem_ctrl.dram.rank1.actEnergy       4145269800                       # Energy for activate commands per rank (pJ)
system.mem_ctrl.dram.rank1.preEnergy       2203251765                       # Energy for precharge commands per rank (pJ)
system.mem_ctrl.dram.rank1.readEnergy     23096928960                       # Energy for read commands per rank (pJ)
system.mem_ctrl.dram.rank1.writeEnergy      936034740                       # Energy for write commands per rank (pJ)
system.mem_ctrl.dram.rank1.refreshEnergy 134499212640.000015                       # Energy for refresh commands per rank (pJ)
system.mem_ctrl.dram.rank1.actBackEnergy 573035305290                       # Energy for active background per rank (pJ)
system.mem_ctrl.dram.rank1.preBackEnergy 171718120800                       # Energy for precharge background per rank (pJ)
system.mem_ctrl.dram.rank1.actPowerDownEnergy            0                       # Energy for active power-down per rank (pJ)
system.mem_ctrl.dram.rank1.prePowerDownEnergy            0                       # Energy for precharge power-down per rank (pJ)
system.mem_ctrl.dram.rank1.selfRefreshEnergy            0                       # Energy for self refresh per rank (pJ)
system.mem_ctrl.dram.rank1.totalEnergy   909634123995                       # Total energy per rank (pJ)
system.mem_ctrl.dram.rank1.averagePower    533.873292                       # Core power per rank (mW)
system.mem_ctrl.dram.rank1.totalIdleTime            0                       # Total Idle time Per DRAM Rank
system.mem_ctrl.dram.rank1.pwrStateTime::IDLE 438506468250                       # Time in different power states
system.mem_ctrl.dram.rank1.pwrStateTime::REF  56894760000                       # Time in different power states
system.mem_ctrl.dram.rank1.pwrStateTime::SREF            0                       # Time in different power states
system.mem_ctrl.dram.rank1.pwrStateTime::PRE_PDN            0                       # Time in different power states
system.mem_ctrl.dram.rank1.pwrStateTime::ACT 1208437748750                       # Time in different power states
system.mem_ctrl.dram.rank1.pwrStateTime::ACT_PDN            0                       # Time in different power states
system.mem_ctrl.power_state.pwrStateResidencyTicks::UNDEFINED 1703838977000                       # Cumulative time (in ticks) in various power states
system.membus.trans_dist::ReadResp            6382801                       # Transaction distribution
system.membus.trans_dist::WritebackDirty       295175                       # Transaction distribution
system.membus.trans_dist::CleanEvict          6147147                       # Transaction distribution
system.membus.trans_dist::ReadExReq             67784                       # Transaction distribution
system.membus.trans_dist::ReadExResp            67784                       # Transaction distribution
system.membus.trans_dist::ReadSharedReq       6382801                       # Transaction distribution
system.membus.pkt_count_system.l2cache.mem_side_port::system.mem_ctrl.port     19343492                       # Packet count per connected requestor and responder (bytes)
system.membus.pkt_count_system.l2cache.mem_side_port::total     19343492                       # Packet count per connected requestor and responder (bytes)
system.membus.pkt_count::total               19343492                       # Packet count per connected requestor and responder (bytes)
system.membus.pkt_size_system.l2cache.mem_side_port::system.mem_ctrl.port    431728640                       # Cumulative packet size per connected requestor and responder (bytes)
system.membus.pkt_size_system.l2cache.mem_side_port::total    431728640                       # Cumulative packet size per connected requestor and responder (bytes)
system.membus.pkt_size::total               431728640                       # Cumulative packet size per connected requestor and responder (bytes)
system.membus.snoops                                0                       # Total snoops (count)
system.membus.snoopTraffic                          0                       # Total snoop traffic (bytes)
system.membus.snoop_fanout::samples           6450585                       # Request fanout histogram
system.membus.snoop_fanout::mean                    0                       # Request fanout histogram
system.membus.snoop_fanout::stdev                   0                       # Request fanout histogram
system.membus.snoop_fanout::underflows              0      0.00%      0.00% # Request fanout histogram
system.membus.snoop_fanout::0                 6450585    100.00%    100.00% # Request fanout histogram
system.membus.snoop_fanout::1                       0      0.00%    100.00% # Request fanout histogram
system.membus.snoop_fanout::overflows               0      0.00%    100.00% # Request fanout histogram
system.membus.snoop_fanout::min_value               0                       # Request fanout histogram
system.membus.snoop_fanout::max_value               0                       # Request fanout histogram
system.membus.snoop_fanout::total             6450585                       # Request fanout histogram
system.membus.power_state.pwrStateResidencyTicks::UNDEFINED 1703838977000                       # Cumulative time (in ticks) in various power states
system.membus.reqLayer2.occupancy         14073607000                       # Layer occupancy (ticks)
system.membus.reqLayer2.utilization               0.8                       # Layer utilization (%)
system.membus.respLayer0.occupancy        34127712250                       # Layer occupancy (ticks)
system.membus.respLayer0.utilization              2.0                       # Layer utilization (%)

---------- End Simulation Statistics   ----------
