Global frequency set at 1000000000000 ticks per second
Redirecting stdout to /data/home/nta52/gem5-adaptive-bypass-cache-project/slurm_evaluation/results/X86_SYNTHETIC/synthetic_cache_killer.x/1MB/8/AdaptiveBypassRP/0/simout
Redirecting stderr to /data/home/nta52/gem5-adaptive-bypass-cache-project/slurm_evaluation/results/X86_SYNTHETIC/synthetic_cache_killer.x/1MB/8/AdaptiveBypassRP/0/simerr
gem5 Simulator System.  http://gem5.org
gem5 is copyrighted software; use the --copyright option for details.

gem5 version 20.1.0.2
gem5 compiled Apr  2 2026 21:46:33
gem5 started Apr  6 2026 23:21:39
gem5 executing on ARCH-750, pid 1043272
command line: /data/home/nta52/gem5-adaptive-bypass-cache-project/build/X86/gem5.opt -re --outdir=/data/home/nta52/gem5-adaptive-bypass-cache-project/slurm_evaluation/results/X86_SYNTHETIC/synthetic_cache_killer.x/1MB/8/AdaptiveBypassRP/0 /data/home/nta52/gem5-adaptive-bypass-cache-project/configs/evaluation/run_benchmark.py --l2_size 1MB --l2_assoc 8 --l2_initial_bypass_probability 0 --l2_rp AdaptiveBypassRP --cpu_type DerivO3CPU /data/home/nta52/gem5-adaptive-bypass-cache-project/slurm_evaluation/synthetic_cache_killer.x

info: Standard input is not a terminal, disabling listeners.
Beginning simulation with L2=1MB (8-way), RP=AdaptiveBypassRP (InitProb=0)
Execution Output: 1505951744
Exit @ tick 203532032000 because exiting with last active thread context
