
---------- Begin Simulation Statistics ----------
final_tick                               203532032000                       # Number of ticks from beginning of simulation (restored from checkpoints and never reset)
host_inst_rate                                  78089                       # Simulator instruction rate (inst/s)
host_mem_usage                                 669080                       # Number of bytes of host memory used
host_op_rate                                   183877                       # Simulator op (including micro ops) rate (op/s)
host_seconds                                  2067.87                       # Real time elapsed on the host
host_tick_rate                               98426131                       # Simulator tick rate (ticks/s)
sim_freq                                 1000000000000                       # Frequency of simulated ticks
sim_insts                                   161477007                       # Number of instructions simulated
sim_ops                                     380232841                       # Number of ops (including micro ops) simulated
sim_seconds                                  0.203532                       # Number of seconds simulated
sim_ticks                                203532032000                       # Number of ticks simulated
system.cpu.cc_regfile_reads                  69502771                       # number of cc regfile reads
system.cpu.cc_regfile_writes                 39201207                       # number of cc regfile writes
system.cpu.committedInsts                   161477007                       # Number of Instructions Simulated
system.cpu.committedOps                     380232841                       # Number of Ops (including micro ops) Simulated
system.cpu.cpi                               1.260440                       # CPI: Cycles Per Instruction
system.cpu.cpi_total                         1.260440                       # CPI: Total CPI of All Threads
system.cpu.fp_regfile_reads                 569761085                       # number of floating regfile reads
system.cpu.fp_regfile_writes                277285498                       # number of floating regfile writes
system.cpu.idleCycles                           47636                       # Total number of cycles that the CPU has spent unscheduled due to idling
system.cpu.iew.branchMispredicts               165425                       # Number of branch mispredicts detected at execute
system.cpu.iew.exec_branches                 13901547                       # Number of branches executed
system.cpu.iew.exec_nop                             0                       # number of nop insts executed
system.cpu.iew.exec_rate                     1.874809                       # Inst execution rate
system.cpu.iew.exec_refs                     55883125                       # number of memory reference insts executed
system.cpu.iew.exec_stores                   11399308                       # Number of stores executed
system.cpu.iew.exec_swp                             0                       # number of swp insts executed
system.cpu.iew.iewBlockCycles               120263715                       # Number of cycles IEW is blocking
system.cpu.iew.iewDispLoadInsts              44812666                       # Number of dispatched load instructions
system.cpu.iew.iewDispNonSpecInsts                 56                       # Number of dispatched non-speculative instructions
system.cpu.iew.iewDispSquashedInsts                75                       # Number of squashed instructions skipped by dispatch
system.cpu.iew.iewDispStoreInsts             11400200                       # Number of dispatched store instructions
system.cpu.iew.iewDispatchedInsts           384378678                       # Number of instructions dispatched to IQ
system.cpu.iew.iewExecLoadInsts              44483817                       # Number of load instructions executed
system.cpu.iew.iewExecSquashedInsts            657376                       # Number of squashed instructions skipped in execute
system.cpu.iew.iewExecutedInsts             381583774                       # Number of executed instructions
system.cpu.iew.iewIQFullEvents                1310788                       # Number of times the IQ has become full, causing a stall
system.cpu.iew.iewIdleCycles                        0                       # Number of cycles IEW is idle
system.cpu.iew.iewLSQFullEvents                201774                       # Number of times the LSQ has become full, causing a stall
system.cpu.iew.iewSquashCycles                 166266                       # Number of cycles IEW is squashing
system.cpu.iew.iewUnblockCycles               2170014                       # Number of cycles IEW is unblocking
system.cpu.iew.memOrderViolationEvents             34                       # Number of memory order violations
system.cpu.iew.predictedNotTakenIncorrect         1350                       # Number of branches that were predicted not taken incorrectly
system.cpu.iew.predictedTakenIncorrect         164075                       # Number of branches that were predicted taken incorrectly
system.cpu.iew.wb_consumers                 590929710                       # num instructions consuming a value
system.cpu.iew.wb_count                     381221843                       # cumulative count of insts written-back
system.cpu.iew.wb_fanout                     0.561750                       # average fanout of values written-back
system.cpu.iew.wb_producers                 331954634                       # num instructions producing a value
system.cpu.iew.wb_rate                       1.873031                       # insts written-back per cycle
system.cpu.iew.wb_sent                      381255354                       # cumulative count of insts sent to commit
system.cpu.int_regfile_reads                178837464                       # number of integer regfile reads
system.cpu.int_regfile_writes                78502346                       # number of integer regfile writes
system.cpu.ipc                               0.793374                       # IPC: Instructions Per Cycle
system.cpu.ipc_total                         0.793374                       # IPC: Total IPC of All Threads
system.cpu.iq.FU_type_0::No_OpClass            166933      0.04%      0.04% # Type of FU issued
system.cpu.iq.FU_type_0::IntAlu             158088380     41.36%     41.40% # Type of FU issued
system.cpu.iq.FU_type_0::IntMult                   18      0.00%     41.40% # Type of FU issued
system.cpu.iq.FU_type_0::IntDiv                    28      0.00%     41.40% # Type of FU issued
system.cpu.iq.FU_type_0::FloatAdd                 173      0.00%     41.40% # Type of FU issued
system.cpu.iq.FU_type_0::FloatCmp                   0      0.00%     41.40% # Type of FU issued
system.cpu.iq.FU_type_0::FloatCvt                   0      0.00%     41.40% # Type of FU issued
system.cpu.iq.FU_type_0::FloatMult                  0      0.00%     41.40% # Type of FU issued
system.cpu.iq.FU_type_0::FloatMultAcc               0      0.00%     41.40% # Type of FU issued
system.cpu.iq.FU_type_0::FloatDiv                   0      0.00%     41.40% # Type of FU issued
system.cpu.iq.FU_type_0::FloatMisc                  0      0.00%     41.40% # Type of FU issued
system.cpu.iq.FU_type_0::FloatSqrt                  0      0.00%     41.40% # Type of FU issued
system.cpu.iq.FU_type_0::SimdAdd             81264802     21.26%     62.66% # Type of FU issued
system.cpu.iq.FU_type_0::SimdAddAcc                 0      0.00%     62.66% # Type of FU issued
system.cpu.iq.FU_type_0::SimdAlu             37684158      9.86%     72.52% # Type of FU issued
system.cpu.iq.FU_type_0::SimdCmp                   12      0.00%     72.52% # Type of FU issued
system.cpu.iq.FU_type_0::SimdCvt             10813734      2.83%     75.35% # Type of FU issued
system.cpu.iq.FU_type_0::SimdMisc            21627382      5.66%     81.01% # Type of FU issued
system.cpu.iq.FU_type_0::SimdMult                   0      0.00%     81.01% # Type of FU issued
system.cpu.iq.FU_type_0::SimdMultAcc                0      0.00%     81.01% # Type of FU issued
system.cpu.iq.FU_type_0::SimdShift           16384130      4.29%     85.29% # Type of FU issued
system.cpu.iq.FU_type_0::SimdShiftAcc               0      0.00%     85.29% # Type of FU issued
system.cpu.iq.FU_type_0::SimdDiv                    0      0.00%     85.29% # Type of FU issued
system.cpu.iq.FU_type_0::SimdSqrt                   0      0.00%     85.29% # Type of FU issued
system.cpu.iq.FU_type_0::SimdFloatAdd               0      0.00%     85.29% # Type of FU issued
system.cpu.iq.FU_type_0::SimdFloatAlu               0      0.00%     85.29% # Type of FU issued
system.cpu.iq.FU_type_0::SimdFloatCmp               0      0.00%     85.29% # Type of FU issued
system.cpu.iq.FU_type_0::SimdFloatCvt               0      0.00%     85.29% # Type of FU issued
system.cpu.iq.FU_type_0::SimdFloatDiv               0      0.00%     85.29% # Type of FU issued
system.cpu.iq.FU_type_0::SimdFloatMisc              0      0.00%     85.29% # Type of FU issued
system.cpu.iq.FU_type_0::SimdFloatMult              0      0.00%     85.29% # Type of FU issued
system.cpu.iq.FU_type_0::SimdFloatMultAcc            0      0.00%     85.29% # Type of FU issued
system.cpu.iq.FU_type_0::SimdFloatSqrt              0      0.00%     85.29% # Type of FU issued
system.cpu.iq.FU_type_0::SimdReduceAdd              0      0.00%     85.29% # Type of FU issued
system.cpu.iq.FU_type_0::SimdReduceAlu              0      0.00%     85.29% # Type of FU issued
system.cpu.iq.FU_type_0::SimdReduceCmp              0      0.00%     85.29% # Type of FU issued
system.cpu.iq.FU_type_0::SimdFloatReduceAdd            0      0.00%     85.29% # Type of FU issued
system.cpu.iq.FU_type_0::SimdFloatReduceCmp            0      0.00%     85.29% # Type of FU issued
system.cpu.iq.FU_type_0::SimdAes                    0      0.00%     85.29% # Type of FU issued
system.cpu.iq.FU_type_0::SimdAesMix                 0      0.00%     85.29% # Type of FU issued
system.cpu.iq.FU_type_0::SimdSha1Hash               0      0.00%     85.29% # Type of FU issued
system.cpu.iq.FU_type_0::SimdSha1Hash2              0      0.00%     85.29% # Type of FU issued
system.cpu.iq.FU_type_0::SimdSha256Hash             0      0.00%     85.29% # Type of FU issued
system.cpu.iq.FU_type_0::SimdSha256Hash2            0      0.00%     85.29% # Type of FU issued
system.cpu.iq.FU_type_0::SimdShaSigma2              0      0.00%     85.29% # Type of FU issued
system.cpu.iq.FU_type_0::SimdShaSigma3              0      0.00%     85.29% # Type of FU issued
system.cpu.iq.FU_type_0::SimdPredAlu                0      0.00%     85.29% # Type of FU issued
system.cpu.iq.FU_type_0::MemRead                17502      0.00%     85.30% # Type of FU issued
system.cpu.iq.FU_type_0::MemWrite                9912      0.00%     85.30% # Type of FU issued
system.cpu.iq.FU_type_0::FloatMemRead        44794420     11.72%     97.02% # Type of FU issued
system.cpu.iq.FU_type_0::FloatMemWrite       11389566      2.98%    100.00% # Type of FU issued
system.cpu.iq.FU_type_0::IprAccess                  0      0.00%    100.00% # Type of FU issued
system.cpu.iq.FU_type_0::InstPrefetch               0      0.00%    100.00% # Type of FU issued
system.cpu.iq.FU_type_0::total              382241150                       # Type of FU issued
system.cpu.iq.fp_alu_accesses               290641849                       # Number of floating point alu accesses
system.cpu.iq.fp_inst_queue_reads           579972779                       # Number of floating instruction queue reads
system.cpu.iq.fp_inst_queue_wakeup_accesses    288642627                       # Number of floating instruction queue wakeup accesses
system.cpu.iq.fp_inst_queue_writes          294151661                       # Number of floating instruction queue writes
system.cpu.iq.fu_busy_cnt                     1313171                       # FU busy when requested
system.cpu.iq.fu_busy_rate                   0.003435                       # FU busy rate (busy events/executed inst)
system.cpu.iq.fu_full::No_OpClass                   0      0.00%      0.00% # attempts to use FU when none available
system.cpu.iq.fu_full::IntAlu                    2107      0.16%      0.16% # attempts to use FU when none available
system.cpu.iq.fu_full::IntMult                      0      0.00%      0.16% # attempts to use FU when none available
system.cpu.iq.fu_full::IntDiv                       0      0.00%      0.16% # attempts to use FU when none available
system.cpu.iq.fu_full::FloatAdd                     0      0.00%      0.16% # attempts to use FU when none available
system.cpu.iq.fu_full::FloatCmp                     0      0.00%      0.16% # attempts to use FU when none available
system.cpu.iq.fu_full::FloatCvt                     0      0.00%      0.16% # attempts to use FU when none available
system.cpu.iq.fu_full::FloatMult                    0      0.00%      0.16% # attempts to use FU when none available
system.cpu.iq.fu_full::FloatMultAcc                 0      0.00%      0.16% # attempts to use FU when none available
system.cpu.iq.fu_full::FloatDiv                     0      0.00%      0.16% # attempts to use FU when none available
system.cpu.iq.fu_full::FloatMisc                    0      0.00%      0.16% # attempts to use FU when none available
system.cpu.iq.fu_full::FloatSqrt                    0      0.00%      0.16% # attempts to use FU when none available
system.cpu.iq.fu_full::SimdAdd                1310702     99.81%     99.97% # attempts to use FU when none available
system.cpu.iq.fu_full::SimdAddAcc                   0      0.00%     99.97% # attempts to use FU when none available
system.cpu.iq.fu_full::SimdAlu                     97      0.01%     99.98% # attempts to use FU when none available
system.cpu.iq.fu_full::SimdCmp                      0      0.00%     99.98% # attempts to use FU when none available
system.cpu.iq.fu_full::SimdCvt                      9      0.00%     99.98% # attempts to use FU when none available
system.cpu.iq.fu_full::SimdMisc                    10      0.00%     99.98% # attempts to use FU when none available
system.cpu.iq.fu_full::SimdMult                     0      0.00%     99.98% # attempts to use FU when none available
system.cpu.iq.fu_full::SimdMultAcc                  0      0.00%     99.98% # attempts to use FU when none available
system.cpu.iq.fu_full::SimdShift                   59      0.00%     99.99% # attempts to use FU when none available
system.cpu.iq.fu_full::SimdShiftAcc                 0      0.00%     99.99% # attempts to use FU when none available
system.cpu.iq.fu_full::SimdDiv                      0      0.00%     99.99% # attempts to use FU when none available
system.cpu.iq.fu_full::SimdSqrt                     0      0.00%     99.99% # attempts to use FU when none available
system.cpu.iq.fu_full::SimdFloatAdd                 0      0.00%     99.99% # attempts to use FU when none available
system.cpu.iq.fu_full::SimdFloatAlu                 0      0.00%     99.99% # attempts to use FU when none available
system.cpu.iq.fu_full::SimdFloatCmp                 0      0.00%     99.99% # attempts to use FU when none available
system.cpu.iq.fu_full::SimdFloatCvt                 0      0.00%     99.99% # attempts to use FU when none available
system.cpu.iq.fu_full::SimdFloatDiv                 0      0.00%     99.99% # attempts to use FU when none available
system.cpu.iq.fu_full::SimdFloatMisc                0      0.00%     99.99% # attempts to use FU when none available
system.cpu.iq.fu_full::SimdFloatMult                0      0.00%     99.99% # attempts to use FU when none available
system.cpu.iq.fu_full::SimdFloatMultAcc             0      0.00%     99.99% # attempts to use FU when none available
system.cpu.iq.fu_full::SimdFloatSqrt                0      0.00%     99.99% # attempts to use FU when none available
system.cpu.iq.fu_full::SimdReduceAdd                0      0.00%     99.99% # attempts to use FU when none available
system.cpu.iq.fu_full::SimdReduceAlu                0      0.00%     99.99% # attempts to use FU when none available
system.cpu.iq.fu_full::SimdReduceCmp                0      0.00%     99.99% # attempts to use FU when none available
system.cpu.iq.fu_full::SimdFloatReduceAdd            0      0.00%     99.99% # attempts to use FU when none available
system.cpu.iq.fu_full::SimdFloatReduceCmp            0      0.00%     99.99% # attempts to use FU when none available
system.cpu.iq.fu_full::SimdAes                      0      0.00%     99.99% # attempts to use FU when none available
system.cpu.iq.fu_full::SimdAesMix                   0      0.00%     99.99% # attempts to use FU when none available
system.cpu.iq.fu_full::SimdSha1Hash                 0      0.00%     99.99% # attempts to use FU when none available
system.cpu.iq.fu_full::SimdSha1Hash2                0      0.00%     99.99% # attempts to use FU when none available
system.cpu.iq.fu_full::SimdSha256Hash               0      0.00%     99.99% # attempts to use FU when none available
system.cpu.iq.fu_full::SimdSha256Hash2              0      0.00%     99.99% # attempts to use FU when none available
system.cpu.iq.fu_full::SimdShaSigma2                0      0.00%     99.99% # attempts to use FU when none available
system.cpu.iq.fu_full::SimdShaSigma3                0      0.00%     99.99% # attempts to use FU when none available
system.cpu.iq.fu_full::SimdPredAlu                  0      0.00%     99.99% # attempts to use FU when none available
system.cpu.iq.fu_full::MemRead                     56      0.00%     99.99% # attempts to use FU when none available
system.cpu.iq.fu_full::MemWrite                    65      0.00%     99.99% # attempts to use FU when none available
system.cpu.iq.fu_full::FloatMemRead                22      0.00%    100.00% # attempts to use FU when none available
system.cpu.iq.fu_full::FloatMemWrite               44      0.00%    100.00% # attempts to use FU when none available
system.cpu.iq.fu_full::IprAccess                    0      0.00%    100.00% # attempts to use FU when none available
system.cpu.iq.fu_full::InstPrefetch                 0      0.00%    100.00% # attempts to use FU when none available
system.cpu.iq.int_alu_accesses               92745539                       # Number of integer alu accesses
system.cpu.iq.int_inst_queue_reads          389471081                       # Number of integer instruction queue reads
system.cpu.iq.int_inst_queue_wakeup_accesses     92579216                       # Number of integer instruction queue wakeup accesses
system.cpu.iq.int_inst_queue_writes          94372879                       # Number of integer instruction queue writes
system.cpu.iq.iqInstsAdded                  384378512                       # Number of instructions added to the IQ (excludes non-spec)
system.cpu.iq.iqInstsIssued                 382241150                       # Number of instructions issued
system.cpu.iq.iqNonSpecInstsAdded                 166                       # Number of non-speculative instructions added to the IQ
system.cpu.iq.iqSquashedInstsExamined         4145831                       # Number of squashed instructions iterated over during squash; mainly for profiling
system.cpu.iq.iqSquashedInstsIssued            163992                       # Number of squashed instructions issued
system.cpu.iq.iqSquashedNonSpecRemoved            130                       # Number of squashed non-spec instructions that were removed
system.cpu.iq.iqSquashedOperandsExamined      7045774                       # Number of squashed operands that are examined and possibly removed from graph
system.cpu.iq.issued_per_cycle::samples     203484397                       # Number of insts issued each cycle
system.cpu.iq.issued_per_cycle::mean         1.878479                       # Number of insts issued each cycle
system.cpu.iq.issued_per_cycle::stdev        2.843825                       # Number of insts issued each cycle
system.cpu.iq.issued_per_cycle::underflows            0      0.00%      0.00% # Number of insts issued each cycle
system.cpu.iq.issued_per_cycle::0           134177141     65.94%     65.94% # Number of insts issued each cycle
system.cpu.iq.issued_per_cycle::1             2772491      1.36%     67.30% # Number of insts issued each cycle
system.cpu.iq.issued_per_cycle::2             2496049      1.23%     68.53% # Number of insts issued each cycle
system.cpu.iq.issued_per_cycle::3             4823846      2.37%     70.90% # Number of insts issued each cycle
system.cpu.iq.issued_per_cycle::4             7862531      3.86%     74.76% # Number of insts issued each cycle
system.cpu.iq.issued_per_cycle::5            20247820      9.95%     84.71% # Number of insts issued each cycle
system.cpu.iq.issued_per_cycle::6             3814000      1.87%     86.59% # Number of insts issued each cycle
system.cpu.iq.issued_per_cycle::7            13892353      6.83%     93.42% # Number of insts issued each cycle
system.cpu.iq.issued_per_cycle::8            13398166      6.58%    100.00% # Number of insts issued each cycle
system.cpu.iq.issued_per_cycle::overflows            0      0.00%    100.00% # Number of insts issued each cycle
system.cpu.iq.issued_per_cycle::min_value            0                       # Number of insts issued each cycle
system.cpu.iq.issued_per_cycle::max_value            8                       # Number of insts issued each cycle
system.cpu.iq.issued_per_cycle::total       203484397                       # Number of insts issued each cycle
system.cpu.iq.rate                           1.878039                       # Inst issue rate
system.cpu.iq.vec_alu_accesses                      0                       # Number of vector alu accesses
system.cpu.iq.vec_inst_queue_reads                  0                       # Number of vector instruction queue reads
system.cpu.iq.vec_inst_queue_wakeup_accesses            0                       # Number of vector instruction queue wakeup accesses
system.cpu.iq.vec_inst_queue_writes                 0                       # Number of vector instruction queue writes
system.cpu.memDep0.conflictingLoads               217                       # Number of conflicting loads.
system.cpu.memDep0.conflictingStores              157                       # Number of conflicting stores.
system.cpu.memDep0.insertedLoads             44812666                       # Number of loads inserted to the mem dependence unit.
system.cpu.memDep0.insertedStores            11400200                       # Number of stores inserted to the mem dependence unit.
system.cpu.misc_regfile_reads               100677720                       # number of misc regfile reads
system.cpu.numCycles                        203532033                       # number of cpu cycles simulated
system.cpu.numWorkItemsCompleted                    0                       # number of work items this cpu completed
system.cpu.numWorkItemsStarted                      0                       # number of work items this cpu started
system.cpu.timesIdled                             684                       # Number of times that the entire CPU went into an idle state and unscheduled itself
system.cpu.workload.numSyscalls                    16                       # Number of system calls
system.l2bus.snoop_filter.hit_multi_requests            5                       # Number of requests hitting in the snoop filter with multiple (>1) holders of the requested data.
system.l2bus.snoop_filter.hit_multi_snoops            0                       # Number of snoops hitting in the snoop filter with multiple (>1) holders of the requested data.
system.l2bus.snoop_filter.hit_single_requests      1419825                       # Number of requests hitting in the snoop filter with a single holder of the requested data.
system.l2bus.snoop_filter.hit_single_snoops          269                       # Number of snoops hitting in the snoop filter with a single holder of the requested data.
system.l2bus.snoop_filter.tot_requests        2840931                       # Total number of requests made to the snoop filter.
system.l2bus.snoop_filter.tot_snoops              269                       # Total number of snoops made to the snoop filter.
system.membus.snoop_filter.hit_multi_requests            0                       # Number of requests hitting in the snoop filter with multiple (>1) holders of the requested data.
system.membus.snoop_filter.hit_multi_snoops            0                       # Number of snoops hitting in the snoop filter with multiple (>1) holders of the requested data.
system.membus.snoop_filter.hit_single_requests      1404517                       # Number of requests hitting in the snoop filter with a single holder of the requested data.
system.membus.snoop_filter.hit_single_snoops            0                       # Number of snoops hitting in the snoop filter with a single holder of the requested data.
system.membus.snoop_filter.tot_requests       2825508                       # Total number of requests made to the snoop filter.
system.membus.snoop_filter.tot_snoops               0                       # Total number of snoops made to the snoop filter.
system.clk_domain.clock                          1000                       # Clock period in ticks
system.clk_domain.voltage_domain.voltage            1                       # Voltage in Volts
system.cpu.branchPred.lookups                14074594                       # Number of BP lookups
system.cpu.branchPred.condPredicted          14069501                       # Number of conditional branches predicted
system.cpu.branchPred.condIncorrect            165463                       # Number of conditional branches incorrect
system.cpu.branchPred.BTBLookups             14064126                       # Number of BTB lookups
system.cpu.branchPred.BTBHits                14062456                       # Number of BTB hits
system.cpu.branchPred.BTBHitPct             99.988126                       # BTB Hit Percentage
system.cpu.branchPred.RASUsed                    1807                       # Number of times the RAS was used to get a target.
system.cpu.branchPred.RASIncorrect                 13                       # Number of incorrect RAS predictions.
system.cpu.branchPred.indirectLookups             924                       # Number of indirect predictor lookups.
system.cpu.branchPred.indirectHits                319                       # Number of indirect target hits.
system.cpu.branchPred.indirectMisses              605                       # Number of indirect misses.
system.cpu.branchPred.indirectMispredicted          182                       # Number of mispredicted indirect branches.
system.cpu.commit.commitSquashedInsts         4144435                       # The number of squashed insts skipped by commit
system.cpu.commit.commitNonSpecStalls              36                       # The number of times commit has been forced to stall to communicate backwards
system.cpu.commit.branchMispredicts            165162                       # The number of times a branch was mispredicted
system.cpu.commit.numCommittedDist::samples    202965312                       # Number of insts commited each cycle
system.cpu.commit.numCommittedDist::mean     1.873388                       # Number of insts commited each cycle
system.cpu.commit.numCommittedDist::stdev     3.042687                       # Number of insts commited each cycle
system.cpu.commit.numCommittedDist::underflows            0      0.00%      0.00% # Number of insts commited each cycle
system.cpu.commit.numCommittedDist::0       140087986     69.02%     69.02% # Number of insts commited each cycle
system.cpu.commit.numCommittedDist::1         1904398      0.94%     69.96% # Number of insts commited each cycle
system.cpu.commit.numCommittedDist::2         4428625      2.18%     72.14% # Number of insts commited each cycle
system.cpu.commit.numCommittedDist::3          209274      0.10%     72.24% # Number of insts commited each cycle
system.cpu.commit.numCommittedDist::4        11270613      5.55%     77.80% # Number of insts commited each cycle
system.cpu.commit.numCommittedDist::5         7170321      3.53%     81.33% # Number of insts commited each cycle
system.cpu.commit.numCommittedDist::6         6852370      3.38%     84.71% # Number of insts commited each cycle
system.cpu.commit.numCommittedDist::7         1538706      0.76%     85.46% # Number of insts commited each cycle
system.cpu.commit.numCommittedDist::8        29503019     14.54%    100.00% # Number of insts commited each cycle
system.cpu.commit.numCommittedDist::overflows            0      0.00%    100.00% # Number of insts commited each cycle
system.cpu.commit.numCommittedDist::min_value            0                       # Number of insts commited each cycle
system.cpu.commit.numCommittedDist::max_value            8                       # Number of insts commited each cycle
system.cpu.commit.numCommittedDist::total    202965312                       # Number of insts commited each cycle
system.cpu.commit.instsCommitted            161477007                       # Number of instructions committed
system.cpu.commit.opsCommitted              380232841                       # Number of ops (including micro ops) committed
system.cpu.commit.memRefs                    55484408                       # Number of memory references committed
system.cpu.commit.loads                      44120798                       # Number of loads committed
system.cpu.commit.amos                              0                       # Number of atomic instructions committed
system.cpu.commit.membars                          24                       # Number of memory barriers committed
system.cpu.commit.branches                   13883202                       # Number of branches committed
system.cpu.commit.vector                            0                       # Number of committed Vector instructions.
system.cpu.commit.floating                  288115755                       # Number of committed floating point instructions.
system.cpu.commit.integer                   147412303                       # Number of committed integer instructions.
system.cpu.commit.functionCalls                  1454                       # Number of function calls committed.
system.cpu.commit.committedInstType_0::No_OpClass       165929      0.04%      0.04% # Class of committed instruction
system.cpu.commit.committedInstType_0::IntAlu    156808392     41.24%     41.28% # Class of committed instruction
system.cpu.commit.committedInstType_0::IntMult           17      0.00%     41.28% # Class of committed instruction
system.cpu.commit.committedInstType_0::IntDiv           28      0.00%     41.28% # Class of committed instruction
system.cpu.commit.committedInstType_0::FloatAdd          147      0.00%     41.28% # Class of committed instruction
system.cpu.commit.committedInstType_0::FloatCmp            0      0.00%     41.28% # Class of committed instruction
system.cpu.commit.committedInstType_0::FloatCvt            0      0.00%     41.28% # Class of committed instruction
system.cpu.commit.committedInstType_0::FloatMult            0      0.00%     41.28% # Class of committed instruction
system.cpu.commit.committedInstType_0::FloatMultAcc            0      0.00%     41.28% # Class of committed instruction
system.cpu.commit.committedInstType_0::FloatDiv            0      0.00%     41.28% # Class of committed instruction
system.cpu.commit.committedInstType_0::FloatMisc            0      0.00%     41.28% # Class of committed instruction
system.cpu.commit.committedInstType_0::FloatSqrt            0      0.00%     41.28% # Class of committed instruction
system.cpu.commit.committedInstType_0::SimdAdd     81264736     21.37%     62.66% # Class of committed instruction
system.cpu.commit.committedInstType_0::SimdAddAcc            0      0.00%     62.66% # Class of committed instruction
system.cpu.commit.committedInstType_0::SimdAlu     37683986      9.91%     72.57% # Class of committed instruction
system.cpu.commit.committedInstType_0::SimdCmp           12      0.00%     72.57% # Class of committed instruction
system.cpu.commit.committedInstType_0::SimdCvt     10813714      2.84%     75.41% # Class of committed instruction
system.cpu.commit.committedInstType_0::SimdMisc     21627352      5.69%     81.10% # Class of committed instruction
system.cpu.commit.committedInstType_0::SimdMult            0      0.00%     81.10% # Class of committed instruction
system.cpu.commit.committedInstType_0::SimdMultAcc            0      0.00%     81.10% # Class of committed instruction
system.cpu.commit.committedInstType_0::SimdShift     16384120      4.31%     85.41% # Class of committed instruction
system.cpu.commit.committedInstType_0::SimdShiftAcc            0      0.00%     85.41% # Class of committed instruction
system.cpu.commit.committedInstType_0::SimdDiv            0      0.00%     85.41% # Class of committed instruction
system.cpu.commit.committedInstType_0::SimdSqrt            0      0.00%     85.41% # Class of committed instruction
system.cpu.commit.committedInstType_0::SimdFloatAdd            0      0.00%     85.41% # Class of committed instruction
system.cpu.commit.committedInstType_0::SimdFloatAlu            0      0.00%     85.41% # Class of committed instruction
system.cpu.commit.committedInstType_0::SimdFloatCmp            0      0.00%     85.41% # Class of committed instruction
system.cpu.commit.committedInstType_0::SimdFloatCvt            0      0.00%     85.41% # Class of committed instruction
system.cpu.commit.committedInstType_0::SimdFloatDiv            0      0.00%     85.41% # Class of committed instruction
system.cpu.commit.committedInstType_0::SimdFloatMisc            0      0.00%     85.41% # Class of committed instruction
system.cpu.commit.committedInstType_0::SimdFloatMult            0      0.00%     85.41% # Class of committed instruction
system.cpu.commit.committedInstType_0::SimdFloatMultAcc            0      0.00%     85.41% # Class of committed instruction
system.cpu.commit.committedInstType_0::SimdFloatSqrt            0      0.00%     85.41% # Class of committed instruction
system.cpu.commit.committedInstType_0::SimdReduceAdd            0      0.00%     85.41% # Class of committed instruction
system.cpu.commit.committedInstType_0::SimdReduceAlu            0      0.00%     85.41% # Class of committed instruction
system.cpu.commit.committedInstType_0::SimdReduceCmp            0      0.00%     85.41% # Class of committed instruction
system.cpu.commit.committedInstType_0::SimdFloatReduceAdd            0      0.00%     85.41% # Class of committed instruction
system.cpu.commit.committedInstType_0::SimdFloatReduceCmp            0      0.00%     85.41% # Class of committed instruction
system.cpu.commit.committedInstType_0::SimdAes            0      0.00%     85.41% # Class of committed instruction
system.cpu.commit.committedInstType_0::SimdAesMix            0      0.00%     85.41% # Class of committed instruction
system.cpu.commit.committedInstType_0::SimdSha1Hash            0      0.00%     85.41% # Class of committed instruction
system.cpu.commit.committedInstType_0::SimdSha1Hash2            0      0.00%     85.41% # Class of committed instruction
system.cpu.commit.committedInstType_0::SimdSha256Hash            0      0.00%     85.41% # Class of committed instruction
system.cpu.commit.committedInstType_0::SimdSha256Hash2            0      0.00%     85.41% # Class of committed instruction
system.cpu.commit.committedInstType_0::SimdShaSigma2            0      0.00%     85.41% # Class of committed instruction
system.cpu.commit.committedInstType_0::SimdShaSigma3            0      0.00%     85.41% # Class of committed instruction
system.cpu.commit.committedInstType_0::SimdPredAlu            0      0.00%     85.41% # Class of committed instruction
system.cpu.commit.committedInstType_0::MemRead        14696      0.00%     85.41% # Class of committed instruction
system.cpu.commit.committedInstType_0::MemWrite         8947      0.00%     85.41% # Class of committed instruction
system.cpu.commit.committedInstType_0::FloatMemRead     44106102     11.60%     97.01% # Class of committed instruction
system.cpu.commit.committedInstType_0::FloatMemWrite     11354663      2.99%    100.00% # Class of committed instruction
system.cpu.commit.committedInstType_0::IprAccess            0      0.00%    100.00% # Class of committed instruction
system.cpu.commit.committedInstType_0::InstPrefetch            0      0.00%    100.00% # Class of committed instruction
system.cpu.commit.committedInstType_0::total    380232841                       # Class of committed instruction
system.cpu.commit.commitEligibleSamples      29503019                       # number cycles where commit BW limit reached
system.cpu.dcache.demand_hits::.cpu.data     47828761                       # number of demand (read+write) hits
system.cpu.dcache.demand_hits::total         47828761                       # number of demand (read+write) hits
system.cpu.dcache.overall_hits::.cpu.data     47828761                       # number of overall hits
system.cpu.dcache.overall_hits::total        47828761                       # number of overall hits
system.cpu.dcache.demand_misses::.cpu.data      8015089                       # number of demand (read+write) misses
system.cpu.dcache.demand_misses::total        8015089                       # number of demand (read+write) misses
system.cpu.dcache.overall_misses::.cpu.data      8015089                       # number of overall misses
system.cpu.dcache.overall_misses::total       8015089                       # number of overall misses
system.cpu.dcache.demand_miss_latency::.cpu.data 821304688998                       # number of demand (read+write) miss cycles
system.cpu.dcache.demand_miss_latency::total 821304688998                       # number of demand (read+write) miss cycles
system.cpu.dcache.overall_miss_latency::.cpu.data 821304688998                       # number of overall miss cycles
system.cpu.dcache.overall_miss_latency::total 821304688998                       # number of overall miss cycles
system.cpu.dcache.demand_accesses::.cpu.data     55843850                       # number of demand (read+write) accesses
system.cpu.dcache.demand_accesses::total     55843850                       # number of demand (read+write) accesses
system.cpu.dcache.overall_accesses::.cpu.data     55843850                       # number of overall (read+write) accesses
system.cpu.dcache.overall_accesses::total     55843850                       # number of overall (read+write) accesses
system.cpu.dcache.demand_miss_rate::.cpu.data     0.143527                       # miss rate for demand accesses
system.cpu.dcache.demand_miss_rate::total     0.143527                       # miss rate for demand accesses
system.cpu.dcache.overall_miss_rate::.cpu.data     0.143527                       # miss rate for overall accesses
system.cpu.dcache.overall_miss_rate::total     0.143527                       # miss rate for overall accesses
system.cpu.dcache.demand_avg_miss_latency::.cpu.data 102469.815244                       # average overall miss latency
system.cpu.dcache.demand_avg_miss_latency::total 102469.815244                       # average overall miss latency
system.cpu.dcache.overall_avg_miss_latency::.cpu.data 102469.815244                       # average overall miss latency
system.cpu.dcache.overall_avg_miss_latency::total 102469.815244                       # average overall miss latency
system.cpu.dcache.blocked_cycles::no_mshrs         1036                       # number of cycles access was blocked
system.cpu.dcache.blocked_cycles::no_targets           14                       # number of cycles access was blocked
system.cpu.dcache.blocked::no_mshrs                35                       # number of cycles access was blocked
system.cpu.dcache.blocked::no_targets               1                       # number of cycles access was blocked
system.cpu.dcache.avg_blocked_cycles::no_mshrs    29.600000                       # average number of cycles each access was blocked
system.cpu.dcache.avg_blocked_cycles::no_targets           14                       # average number of cycles each access was blocked
system.cpu.dcache.writebacks::.writebacks      1418707                       # number of writebacks
system.cpu.dcache.writebacks::total           1418707                       # number of writebacks
system.cpu.dcache.demand_mshr_hits::.cpu.data      6595181                       # number of demand (read+write) MSHR hits
system.cpu.dcache.demand_mshr_hits::total      6595181                       # number of demand (read+write) MSHR hits
system.cpu.dcache.overall_mshr_hits::.cpu.data      6595181                       # number of overall MSHR hits
system.cpu.dcache.overall_mshr_hits::total      6595181                       # number of overall MSHR hits
system.cpu.dcache.demand_mshr_misses::.cpu.data      1419908                       # number of demand (read+write) MSHR misses
system.cpu.dcache.demand_mshr_misses::total      1419908                       # number of demand (read+write) MSHR misses
system.cpu.dcache.overall_mshr_misses::.cpu.data      1419908                       # number of overall MSHR misses
system.cpu.dcache.overall_mshr_misses::total      1419908                       # number of overall MSHR misses
system.cpu.dcache.demand_mshr_miss_latency::.cpu.data 147561257998                       # number of demand (read+write) MSHR miss cycles
system.cpu.dcache.demand_mshr_miss_latency::total 147561257998                       # number of demand (read+write) MSHR miss cycles
system.cpu.dcache.overall_mshr_miss_latency::.cpu.data 147561257998                       # number of overall MSHR miss cycles
system.cpu.dcache.overall_mshr_miss_latency::total 147561257998                       # number of overall MSHR miss cycles
system.cpu.dcache.demand_mshr_miss_rate::.cpu.data     0.025426                       # mshr miss rate for demand accesses
system.cpu.dcache.demand_mshr_miss_rate::total     0.025426                       # mshr miss rate for demand accesses
system.cpu.dcache.overall_mshr_miss_rate::.cpu.data     0.025426                       # mshr miss rate for overall accesses
system.cpu.dcache.overall_mshr_miss_rate::total     0.025426                       # mshr miss rate for overall accesses
system.cpu.dcache.demand_avg_mshr_miss_latency::.cpu.data 103923.111919                       # average overall mshr miss latency
system.cpu.dcache.demand_avg_mshr_miss_latency::total 103923.111919                       # average overall mshr miss latency
system.cpu.dcache.overall_avg_mshr_miss_latency::.cpu.data 103923.111919                       # average overall mshr miss latency
system.cpu.dcache.overall_avg_mshr_miss_latency::total 103923.111919                       # average overall mshr miss latency
system.cpu.dcache.replacements                1418882                       # number of replacements
system.cpu.dcache.ReadReq_hits::.cpu.data     36533027                       # number of ReadReq hits
system.cpu.dcache.ReadReq_hits::total        36533027                       # number of ReadReq hits
system.cpu.dcache.ReadReq_misses::.cpu.data      7947206                       # number of ReadReq misses
system.cpu.dcache.ReadReq_misses::total       7947206                       # number of ReadReq misses
system.cpu.dcache.ReadReq_miss_latency::.cpu.data 814245299000                       # number of ReadReq miss cycles
system.cpu.dcache.ReadReq_miss_latency::total 814245299000                       # number of ReadReq miss cycles
system.cpu.dcache.ReadReq_accesses::.cpu.data     44480233                       # number of ReadReq accesses(hits+misses)
system.cpu.dcache.ReadReq_accesses::total     44480233                       # number of ReadReq accesses(hits+misses)
system.cpu.dcache.ReadReq_miss_rate::.cpu.data     0.178668                       # miss rate for ReadReq accesses
system.cpu.dcache.ReadReq_miss_rate::total     0.178668                       # miss rate for ReadReq accesses
system.cpu.dcache.ReadReq_avg_miss_latency::.cpu.data 102456.800415                       # average ReadReq miss latency
system.cpu.dcache.ReadReq_avg_miss_latency::total 102456.800415                       # average ReadReq miss latency
system.cpu.dcache.ReadReq_mshr_hits::.cpu.data      6595178                       # number of ReadReq MSHR hits
system.cpu.dcache.ReadReq_mshr_hits::total      6595178                       # number of ReadReq MSHR hits
system.cpu.dcache.ReadReq_mshr_misses::.cpu.data      1352028                       # number of ReadReq MSHR misses
system.cpu.dcache.ReadReq_mshr_misses::total      1352028                       # number of ReadReq MSHR misses
system.cpu.dcache.ReadReq_mshr_miss_latency::.cpu.data 140637883000                       # number of ReadReq MSHR miss cycles
system.cpu.dcache.ReadReq_mshr_miss_latency::total 140637883000                       # number of ReadReq MSHR miss cycles
system.cpu.dcache.ReadReq_mshr_miss_rate::.cpu.data     0.030396                       # mshr miss rate for ReadReq accesses
system.cpu.dcache.ReadReq_mshr_miss_rate::total     0.030396                       # mshr miss rate for ReadReq accesses
system.cpu.dcache.ReadReq_avg_mshr_miss_latency::.cpu.data 104019.948551                       # average ReadReq mshr miss latency
system.cpu.dcache.ReadReq_avg_mshr_miss_latency::total 104019.948551                       # average ReadReq mshr miss latency
system.cpu.dcache.WriteReq_hits::.cpu.data     11295734                       # number of WriteReq hits
system.cpu.dcache.WriteReq_hits::total       11295734                       # number of WriteReq hits
system.cpu.dcache.WriteReq_misses::.cpu.data        67883                       # number of WriteReq misses
system.cpu.dcache.WriteReq_misses::total        67883                       # number of WriteReq misses
system.cpu.dcache.WriteReq_miss_latency::.cpu.data   7059389998                       # number of WriteReq miss cycles
system.cpu.dcache.WriteReq_miss_latency::total   7059389998                       # number of WriteReq miss cycles
system.cpu.dcache.WriteReq_accesses::.cpu.data     11363617                       # number of WriteReq accesses(hits+misses)
system.cpu.dcache.WriteReq_accesses::total     11363617                       # number of WriteReq accesses(hits+misses)
system.cpu.dcache.WriteReq_miss_rate::.cpu.data     0.005974                       # miss rate for WriteReq accesses
system.cpu.dcache.WriteReq_miss_rate::total     0.005974                       # miss rate for WriteReq accesses
system.cpu.dcache.WriteReq_avg_miss_latency::.cpu.data 103993.488767                       # average WriteReq miss latency
system.cpu.dcache.WriteReq_avg_miss_latency::total 103993.488767                       # average WriteReq miss latency
system.cpu.dcache.WriteReq_mshr_hits::.cpu.data            3                       # number of WriteReq MSHR hits
system.cpu.dcache.WriteReq_mshr_hits::total            3                       # number of WriteReq MSHR hits
system.cpu.dcache.WriteReq_mshr_misses::.cpu.data        67880                       # number of WriteReq MSHR misses
system.cpu.dcache.WriteReq_mshr_misses::total        67880                       # number of WriteReq MSHR misses
system.cpu.dcache.WriteReq_mshr_miss_latency::.cpu.data   6923374998                       # number of WriteReq MSHR miss cycles
system.cpu.dcache.WriteReq_mshr_miss_latency::total   6923374998                       # number of WriteReq MSHR miss cycles
system.cpu.dcache.WriteReq_mshr_miss_rate::.cpu.data     0.005973                       # mshr miss rate for WriteReq accesses
system.cpu.dcache.WriteReq_mshr_miss_rate::total     0.005973                       # mshr miss rate for WriteReq accesses
system.cpu.dcache.WriteReq_avg_mshr_miss_latency::.cpu.data 101994.328197                       # average WriteReq mshr miss latency
system.cpu.dcache.WriteReq_avg_mshr_miss_latency::total 101994.328197                       # average WriteReq mshr miss latency
system.cpu.dcache.power_state.pwrStateResidencyTicks::UNDEFINED 203532032000                       # Cumulative time (in ticks) in various power states
system.cpu.dcache.tags.tagsinuse          1023.460470                       # Cycle average of tags in use
system.cpu.dcache.tags.total_refs            49248669                       # Total number of references to valid blocks.
system.cpu.dcache.tags.sampled_refs           1419906                       # Sample count of references to valid blocks.
system.cpu.dcache.tags.avg_refs             34.684457                       # Average number of references to valid blocks.
system.cpu.dcache.tags.warmup_cycle            222000                       # Cycle when the warmup percentage was hit.
system.cpu.dcache.tags.occ_blocks::.cpu.data  1023.460470                       # Average occupied blocks per requestor
system.cpu.dcache.tags.occ_percent::.cpu.data     0.999473                       # Average percentage of cache occupancy
system.cpu.dcache.tags.occ_percent::total     0.999473                       # Average percentage of cache occupancy
system.cpu.dcache.tags.occ_task_id_blocks::1024         1024                       # Occupied blocks per task id
system.cpu.dcache.tags.age_task_id_blocks_1024::0           48                       # Occupied blocks per task id
system.cpu.dcache.tags.age_task_id_blocks_1024::1          138                       # Occupied blocks per task id
system.cpu.dcache.tags.age_task_id_blocks_1024::2          837                       # Occupied blocks per task id
system.cpu.dcache.tags.age_task_id_blocks_1024::3            1                       # Occupied blocks per task id
system.cpu.dcache.tags.occ_task_id_percent::1024            1                       # Percentage of cache occupancy per task id
system.cpu.dcache.tags.tag_accesses         113107606                       # Number of tag accesses
system.cpu.dcache.tags.data_accesses        113107606                       # Number of data accesses
system.cpu.dcache.tags.power_state.pwrStateResidencyTicks::UNDEFINED 203532032000                       # Cumulative time (in ticks) in various power states
system.cpu.decode.idleCycles                  7915234                       # Number of cycles decode is idle
system.cpu.decode.blockedCycles             139763372                       # Number of cycles decode is blocked
system.cpu.decode.runCycles                  53157277                       # Number of cycles decode is running
system.cpu.decode.unblockCycles               2482248                       # Number of cycles decode is unblocking
system.cpu.decode.squashCycles                 166266                       # Number of cycles decode is squashing
system.cpu.decode.branchResolved             14057441                       # Number of times decode resolved a  branch
system.cpu.decode.branchMispred                   614                       # Number of times decode detected a branch misprediction
system.cpu.decode.decodedInsts              387174725                       # Number of instructions handled by decode
system.cpu.decode.squashedInsts                  2957                       # Number of squashed instructions handled by decode
system.cpu.dtb.rdAccesses                    44483753                       # TLB accesses on read requests
system.cpu.dtb.wrAccesses                    11399317                       # TLB accesses on write requests
system.cpu.dtb.rdMisses                         21340                       # TLB misses on read requests
system.cpu.dtb.wrMisses                         33785                       # TLB misses on write requests
system.cpu.dtb.walker.power_state.pwrStateResidencyTicks::UNDEFINED 203532032000                       # Cumulative time (in ticks) in various power states
system.cpu.fetch.icacheStallCycles           11589760                       # Number of cycles fetch is stalled on an Icache miss
system.cpu.fetch.insts                      164559112                       # Number of instructions fetch has processed
system.cpu.fetch.branches                    14074594                       # Number of branches that fetch encountered
system.cpu.fetch.predictedBranches           14064582                       # Number of branches that fetch has predicted taken
system.cpu.fetch.cycles                     191725606                       # Number of cycles fetch has run and was not squashing or blocked
system.cpu.fetch.squashCycles                  333728                       # Number of cycles fetch has spent squashing
system.cpu.fetch.miscStallCycles                  317                       # Number of cycles fetch has spent waiting on interrupts,or bad addresses, or out of MSHRs
system.cpu.fetch.pendingTrapStallCycles          1849                       # Number of stall cycles due to pending traps
system.cpu.fetch.pendingQuiesceStallCycles            1                       # Number of stall cycles due to pending quiesce instructions
system.cpu.fetch.cacheLines                  11554897                       # Number of cache lines fetched
system.cpu.fetch.icacheSquashes                   780                       # Number of outstanding Icache misses that were squashed
system.cpu.fetch.nisnDist::samples          203484397                       # Number of instructions fetched each cycle (Total)
system.cpu.fetch.nisnDist::mean              1.909468                       # Number of instructions fetched each cycle (Total)
system.cpu.fetch.nisnDist::stdev             3.355545                       # Number of instructions fetched each cycle (Total)
system.cpu.fetch.nisnDist::underflows               0      0.00%      0.00% # Number of instructions fetched each cycle (Total)
system.cpu.fetch.nisnDist::0                147111344     72.30%     72.30% # Number of instructions fetched each cycle (Total)
system.cpu.fetch.nisnDist::1                  8186592      4.02%     76.32% # Number of instructions fetched each cycle (Total)
system.cpu.fetch.nisnDist::2                   400653      0.20%     76.52% # Number of instructions fetched each cycle (Total)
system.cpu.fetch.nisnDist::3                    32297      0.02%     76.53% # Number of instructions fetched each cycle (Total)
system.cpu.fetch.nisnDist::4                   198798      0.10%     76.63% # Number of instructions fetched each cycle (Total)
system.cpu.fetch.nisnDist::5                   386339      0.19%     76.82% # Number of instructions fetched each cycle (Total)
system.cpu.fetch.nisnDist::6                   284742      0.14%     76.96% # Number of instructions fetched each cycle (Total)
system.cpu.fetch.nisnDist::7                    42326      0.02%     76.98% # Number of instructions fetched each cycle (Total)
system.cpu.fetch.nisnDist::8                 46841306     23.02%    100.00% # Number of instructions fetched each cycle (Total)
system.cpu.fetch.nisnDist::overflows                0      0.00%    100.00% # Number of instructions fetched each cycle (Total)
system.cpu.fetch.nisnDist::min_value                0                       # Number of instructions fetched each cycle (Total)
system.cpu.fetch.nisnDist::max_value                8                       # Number of instructions fetched each cycle (Total)
system.cpu.fetch.nisnDist::total            203484397                       # Number of instructions fetched each cycle (Total)
system.cpu.fetch.branchRate                  0.069152                       # Number of branch fetches per cycle
system.cpu.fetch.rate                        0.808517                       # Number of inst fetches per cycle
system.cpu.icache.demand_hits::.cpu.inst     11553448                       # number of demand (read+write) hits
system.cpu.icache.demand_hits::total         11553448                       # number of demand (read+write) hits
system.cpu.icache.overall_hits::.cpu.inst     11553448                       # number of overall hits
system.cpu.icache.overall_hits::total        11553448                       # number of overall hits
system.cpu.icache.demand_misses::.cpu.inst         1449                       # number of demand (read+write) misses
system.cpu.icache.demand_misses::total           1449                       # number of demand (read+write) misses
system.cpu.icache.overall_misses::.cpu.inst         1449                       # number of overall misses
system.cpu.icache.overall_misses::total          1449                       # number of overall misses
system.cpu.icache.demand_miss_latency::.cpu.inst    138806000                       # number of demand (read+write) miss cycles
system.cpu.icache.demand_miss_latency::total    138806000                       # number of demand (read+write) miss cycles
system.cpu.icache.overall_miss_latency::.cpu.inst    138806000                       # number of overall miss cycles
system.cpu.icache.overall_miss_latency::total    138806000                       # number of overall miss cycles
system.cpu.icache.demand_accesses::.cpu.inst     11554897                       # number of demand (read+write) accesses
system.cpu.icache.demand_accesses::total     11554897                       # number of demand (read+write) accesses
system.cpu.icache.overall_accesses::.cpu.inst     11554897                       # number of overall (read+write) accesses
system.cpu.icache.overall_accesses::total     11554897                       # number of overall (read+write) accesses
system.cpu.icache.demand_miss_rate::.cpu.inst     0.000125                       # miss rate for demand accesses
system.cpu.icache.demand_miss_rate::total     0.000125                       # miss rate for demand accesses
system.cpu.icache.overall_miss_rate::.cpu.inst     0.000125                       # miss rate for overall accesses
system.cpu.icache.overall_miss_rate::total     0.000125                       # miss rate for overall accesses
system.cpu.icache.demand_avg_miss_latency::.cpu.inst 95794.340925                       # average overall miss latency
system.cpu.icache.demand_avg_miss_latency::total 95794.340925                       # average overall miss latency
system.cpu.icache.overall_avg_miss_latency::.cpu.inst 95794.340925                       # average overall miss latency
system.cpu.icache.overall_avg_miss_latency::total 95794.340925                       # average overall miss latency
system.cpu.icache.blocked_cycles::no_mshrs          279                       # number of cycles access was blocked
system.cpu.icache.blocked_cycles::no_targets            0                       # number of cycles access was blocked
system.cpu.icache.blocked::no_mshrs                 4                       # number of cycles access was blocked
system.cpu.icache.blocked::no_targets               0                       # number of cycles access was blocked
system.cpu.icache.avg_blocked_cycles::no_mshrs    69.750000                       # average number of cycles each access was blocked
system.cpu.icache.avg_blocked_cycles::no_targets          nan                       # average number of cycles each access was blocked
system.cpu.icache.demand_mshr_hits::.cpu.inst          249                       # number of demand (read+write) MSHR hits
system.cpu.icache.demand_mshr_hits::total          249                       # number of demand (read+write) MSHR hits
system.cpu.icache.overall_mshr_hits::.cpu.inst          249                       # number of overall MSHR hits
system.cpu.icache.overall_mshr_hits::total          249                       # number of overall MSHR hits
system.cpu.icache.demand_mshr_misses::.cpu.inst         1200                       # number of demand (read+write) MSHR misses
system.cpu.icache.demand_mshr_misses::total         1200                       # number of demand (read+write) MSHR misses
system.cpu.icache.overall_mshr_misses::.cpu.inst         1200                       # number of overall MSHR misses
system.cpu.icache.overall_mshr_misses::total         1200                       # number of overall MSHR misses
system.cpu.icache.demand_mshr_miss_latency::.cpu.inst    115968000                       # number of demand (read+write) MSHR miss cycles
system.cpu.icache.demand_mshr_miss_latency::total    115968000                       # number of demand (read+write) MSHR miss cycles
system.cpu.icache.overall_mshr_miss_latency::.cpu.inst    115968000                       # number of overall MSHR miss cycles
system.cpu.icache.overall_mshr_miss_latency::total    115968000                       # number of overall MSHR miss cycles
system.cpu.icache.demand_mshr_miss_rate::.cpu.inst     0.000104                       # mshr miss rate for demand accesses
system.cpu.icache.demand_mshr_miss_rate::total     0.000104                       # mshr miss rate for demand accesses
system.cpu.icache.overall_mshr_miss_rate::.cpu.inst     0.000104                       # mshr miss rate for overall accesses
system.cpu.icache.overall_mshr_miss_rate::total     0.000104                       # mshr miss rate for overall accesses
system.cpu.icache.demand_avg_mshr_miss_latency::.cpu.inst        96640                       # average overall mshr miss latency
system.cpu.icache.demand_avg_mshr_miss_latency::total        96640                       # average overall mshr miss latency
system.cpu.icache.overall_avg_mshr_miss_latency::.cpu.inst        96640                       # average overall mshr miss latency
system.cpu.icache.overall_avg_mshr_miss_latency::total        96640                       # average overall mshr miss latency
system.cpu.icache.replacements                    941                       # number of replacements
system.cpu.icache.ReadReq_hits::.cpu.inst     11553448                       # number of ReadReq hits
system.cpu.icache.ReadReq_hits::total        11553448                       # number of ReadReq hits
system.cpu.icache.ReadReq_misses::.cpu.inst         1449                       # number of ReadReq misses
system.cpu.icache.ReadReq_misses::total          1449                       # number of ReadReq misses
system.cpu.icache.ReadReq_miss_latency::.cpu.inst    138806000                       # number of ReadReq miss cycles
system.cpu.icache.ReadReq_miss_latency::total    138806000                       # number of ReadReq miss cycles
system.cpu.icache.ReadReq_accesses::.cpu.inst     11554897                       # number of ReadReq accesses(hits+misses)
system.cpu.icache.ReadReq_accesses::total     11554897                       # number of ReadReq accesses(hits+misses)
system.cpu.icache.ReadReq_miss_rate::.cpu.inst     0.000125                       # miss rate for ReadReq accesses
system.cpu.icache.ReadReq_miss_rate::total     0.000125                       # miss rate for ReadReq accesses
system.cpu.icache.ReadReq_avg_miss_latency::.cpu.inst 95794.340925                       # average ReadReq miss latency
system.cpu.icache.ReadReq_avg_miss_latency::total 95794.340925                       # average ReadReq miss latency
system.cpu.icache.ReadReq_mshr_hits::.cpu.inst          249                       # number of ReadReq MSHR hits
system.cpu.icache.ReadReq_mshr_hits::total          249                       # number of ReadReq MSHR hits
system.cpu.icache.ReadReq_mshr_misses::.cpu.inst         1200                       # number of ReadReq MSHR misses
system.cpu.icache.ReadReq_mshr_misses::total         1200                       # number of ReadReq MSHR misses
system.cpu.icache.ReadReq_mshr_miss_latency::.cpu.inst    115968000                       # number of ReadReq MSHR miss cycles
system.cpu.icache.ReadReq_mshr_miss_latency::total    115968000                       # number of ReadReq MSHR miss cycles
system.cpu.icache.ReadReq_mshr_miss_rate::.cpu.inst     0.000104                       # mshr miss rate for ReadReq accesses
system.cpu.icache.ReadReq_mshr_miss_rate::total     0.000104                       # mshr miss rate for ReadReq accesses
system.cpu.icache.ReadReq_avg_mshr_miss_latency::.cpu.inst        96640                       # average ReadReq mshr miss latency
system.cpu.icache.ReadReq_avg_mshr_miss_latency::total        96640                       # average ReadReq mshr miss latency
system.cpu.icache.power_state.pwrStateResidencyTicks::UNDEFINED 203532032000                       # Cumulative time (in ticks) in various power states
system.cpu.icache.tags.tagsinuse           253.976595                       # Cycle average of tags in use
system.cpu.icache.tags.total_refs            11554647                       # Total number of references to valid blocks.
system.cpu.icache.tags.sampled_refs              1199                       # Sample count of references to valid blocks.
system.cpu.icache.tags.avg_refs           9636.903253                       # Average number of references to valid blocks.
system.cpu.icache.tags.warmup_cycle            107000                       # Cycle when the warmup percentage was hit.
system.cpu.icache.tags.occ_blocks::.cpu.inst   253.976595                       # Average occupied blocks per requestor
system.cpu.icache.tags.occ_percent::.cpu.inst     0.992096                       # Average percentage of cache occupancy
system.cpu.icache.tags.occ_percent::total     0.992096                       # Average percentage of cache occupancy
system.cpu.icache.tags.occ_task_id_blocks::1024          256                       # Occupied blocks per task id
system.cpu.icache.tags.age_task_id_blocks_1024::0           73                       # Occupied blocks per task id
system.cpu.icache.tags.age_task_id_blocks_1024::1           93                       # Occupied blocks per task id
system.cpu.icache.tags.age_task_id_blocks_1024::4           90                       # Occupied blocks per task id
system.cpu.icache.tags.occ_task_id_percent::1024            1                       # Percentage of cache occupancy per task id
system.cpu.icache.tags.tag_accesses          23110993                       # Number of tag accesses
system.cpu.icache.tags.data_accesses         23110993                       # Number of data accesses
system.cpu.icache.tags.power_state.pwrStateResidencyTicks::UNDEFINED 203532032000                       # Cumulative time (in ticks) in various power states
system.cpu.interrupts.clk_domain.clock          16000                       # Clock period in ticks
system.cpu.itb.rdAccesses                           0                       # TLB accesses on read requests
system.cpu.itb.wrAccesses                    11555218                       # TLB accesses on write requests
system.cpu.itb.rdMisses                             0                       # TLB misses on read requests
system.cpu.itb.wrMisses                           447                       # TLB misses on write requests
system.cpu.itb.walker.power_state.pwrStateResidencyTicks::UNDEFINED 203532032000                       # Cumulative time (in ticks) in various power states
system.cpu.lsq0.forwLoads                        3415                       # Number of loads that had data forwarded from stores
system.cpu.lsq0.squashedLoads                  691868                       # Number of loads squashed
system.cpu.lsq0.ignoredResponses                    3                       # Number of memory responses ignored because the instruction is squashed
system.cpu.lsq0.memOrderViolation                  34                       # Number of memory ordering violations
system.cpu.lsq0.squashedStores                  36590                       # Number of stores squashed
system.cpu.lsq0.rescheduledLoads                    1                       # Number of loads that were rescheduled
system.cpu.lsq0.blockedByCache                     29                       # Number of times an access to memory failed due to the cache being blocked
system.cpu.power_state.pwrStateResidencyTicks::ON 203532032000                       # Cumulative time (in ticks) in various power states
system.cpu.rename.squashCycles                 166266                       # Number of cycles rename is squashing
system.cpu.rename.idleCycles                  9533307                       # Number of cycles rename is idle
system.cpu.rename.blockCycles               128382735                       # Number of cycles rename is blocking
system.cpu.rename.serializeStallCycles            369                       # count of cycles rename stalledfor serializing inst
system.cpu.rename.runCycles                  53202086                       # Number of cycles rename is running
system.cpu.rename.unblockCycles              12199634                       # Number of cycles rename is unblocking
system.cpu.rename.renamedInsts              385859250                       # Number of instructions processed by rename
system.cpu.rename.ROBFullEvents                122990                       # Number of times rename has blocked due to ROB full
system.cpu.rename.IQFullEvents                2622128                       # Number of times rename has blocked due to IQ full
system.cpu.rename.LQFullEvents                      2                       # Number of times rename has blocked due to LQ full
system.cpu.rename.SQFullEvents                7185311                       # Number of times rename has blocked due to SQ full
system.cpu.rename.renamedOperands           399758523                       # Number of destination operands rename has renamed
system.cpu.rename.lookups                   929310951                       # Number of register rename lookups that rename has made
system.cpu.rename.intLookups                180829085                       # Number of integer rename lookups
system.cpu.rename.fpLookups                 576316481                       # Number of floating rename lookups
system.cpu.rename.committedMaps             393949810                       # Number of HB maps that are committed
system.cpu.rename.undoneMaps                  5808707                       # Number of HB maps that are undone due to squashing
system.cpu.rename.serializing                      11                       # count of serializing insts renamed
system.cpu.rename.tempSerializing                   8                       # count of temporary serializing insts renamed
system.cpu.rename.skidInsts                  20160503                       # count of insts added to the skid buffer
system.cpu.rob.reads                        557825555                       # The number of ROB reads
system.cpu.rob.writes                       769273657                       # The number of ROB writes
system.cpu.thread_0.numInsts                161477007                       # Number of Instructions committed
system.cpu.thread_0.numOps                  380232841                       # Number of Ops committed
system.cpu.thread_0.numMemRefs                      0                       # Number of Memory References
system.l2bus.trans_dist::ReadResp             1353227                       # Transaction distribution
system.l2bus.trans_dist::WritebackDirty       2822270                       # Transaction distribution
system.l2bus.trans_dist::CleanEvict              2160                       # Transaction distribution
system.l2bus.trans_dist::UpgradeReq                 2                       # Transaction distribution
system.l2bus.trans_dist::UpgradeResp                2                       # Transaction distribution
system.l2bus.trans_dist::ReadExReq              67878                       # Transaction distribution
system.l2bus.trans_dist::ReadExResp             67878                       # Transaction distribution
system.l2bus.trans_dist::ReadSharedReq        1353228                       # Transaction distribution
system.l2bus.pkt_count_system.cpu.icache.mem_side_port::system.l2cache.cpu_side_port         3337                       # Packet count per connected requestor and responder (bytes)
system.l2bus.pkt_count_system.cpu.dcache.mem_side_port::system.l2cache.cpu_side_port      4258697                       # Packet count per connected requestor and responder (bytes)
system.l2bus.pkt_count::total                 4262034                       # Packet count per connected requestor and responder (bytes)
system.l2bus.pkt_size_system.cpu.icache.mem_side_port::system.l2cache.cpu_side_port        76544                       # Cumulative packet size per connected requestor and responder (bytes)
system.l2bus.pkt_size_system.cpu.dcache.mem_side_port::system.l2cache.cpu_side_port    181671168                       # Cumulative packet size per connected requestor and responder (bytes)
system.l2bus.pkt_size::total                181747712                       # Cumulative packet size per connected requestor and responder (bytes)
system.l2bus.snoops                           1404611                       # Total snoops (count)
system.l2bus.snoopTraffic                    89828288                       # Total snoop traffic (bytes)
system.l2bus.snoop_fanout::samples            2825715                       # Request fanout histogram
system.l2bus.snoop_fanout::mean              0.000098                       # Request fanout histogram
system.l2bus.snoop_fanout::stdev             0.009883                       # Request fanout histogram
system.l2bus.snoop_fanout::underflows               0      0.00%      0.00% # Request fanout histogram
system.l2bus.snoop_fanout::0                  2825439     99.99%     99.99% # Request fanout histogram
system.l2bus.snoop_fanout::1                      276      0.01%    100.00% # Request fanout histogram
system.l2bus.snoop_fanout::2                        0      0.00%    100.00% # Request fanout histogram
system.l2bus.snoop_fanout::overflows                0      0.00%    100.00% # Request fanout histogram
system.l2bus.snoop_fanout::min_value                0                       # Request fanout histogram
system.l2bus.snoop_fanout::max_value                1                       # Request fanout histogram
system.l2bus.snoop_fanout::total              2825715                       # Request fanout histogram
system.l2bus.power_state.pwrStateResidencyTicks::UNDEFINED 203532032000                       # Cumulative time (in ticks) in various power states
system.l2bus.reqLayer0.occupancy           5678345000                       # Layer occupancy (ticks)
system.l2bus.reqLayer0.utilization                2.8                       # Layer utilization (%)
system.l2bus.respLayer0.occupancy             3597000                       # Layer occupancy (ticks)
system.l2bus.respLayer0.utilization               0.0                       # Layer utilization (%)
system.l2bus.respLayer1.occupancy          4259720000                       # Layer occupancy (ticks)
system.l2bus.respLayer1.utilization               2.1                       # Layer utilization (%)
system.l2cache.demand_hits::.cpu.inst             108                       # number of demand (read+write) hits
system.l2cache.demand_hits::.cpu.data               2                       # number of demand (read+write) hits
system.l2cache.demand_hits::total                 110                       # number of demand (read+write) hits
system.l2cache.overall_hits::.cpu.inst            108                       # number of overall hits
system.l2cache.overall_hits::.cpu.data              2                       # number of overall hits
system.l2cache.overall_hits::total                110                       # number of overall hits
system.l2cache.demand_misses::.cpu.inst          1089                       # number of demand (read+write) misses
system.l2cache.demand_misses::.cpu.data       1419903                       # number of demand (read+write) misses
system.l2cache.demand_misses::total           1420992                       # number of demand (read+write) misses
system.l2cache.overall_misses::.cpu.inst         1089                       # number of overall misses
system.l2cache.overall_misses::.cpu.data      1419903                       # number of overall misses
system.l2cache.overall_misses::total          1420992                       # number of overall misses
system.l2cache.demand_miss_latency::.cpu.inst    110076000                       # number of demand (read+write) miss cycles
system.l2cache.demand_miss_latency::.cpu.data 143301412000                       # number of demand (read+write) miss cycles
system.l2cache.demand_miss_latency::total 143411488000                       # number of demand (read+write) miss cycles
system.l2cache.overall_miss_latency::.cpu.inst    110076000                       # number of overall miss cycles
system.l2cache.overall_miss_latency::.cpu.data 143301412000                       # number of overall miss cycles
system.l2cache.overall_miss_latency::total 143411488000                       # number of overall miss cycles
system.l2cache.demand_accesses::.cpu.inst         1197                       # number of demand (read+write) accesses
system.l2cache.demand_accesses::.cpu.data      1419905                       # number of demand (read+write) accesses
system.l2cache.demand_accesses::total         1421102                       # number of demand (read+write) accesses
system.l2cache.overall_accesses::.cpu.inst         1197                       # number of overall (read+write) accesses
system.l2cache.overall_accesses::.cpu.data      1419905                       # number of overall (read+write) accesses
system.l2cache.overall_accesses::total        1421102                       # number of overall (read+write) accesses
system.l2cache.demand_miss_rate::.cpu.inst     0.909774                       # miss rate for demand accesses
system.l2cache.demand_miss_rate::.cpu.data     0.999999                       # miss rate for demand accesses
system.l2cache.demand_miss_rate::total       0.999923                       # miss rate for demand accesses
system.l2cache.overall_miss_rate::.cpu.inst     0.909774                       # miss rate for overall accesses
system.l2cache.overall_miss_rate::.cpu.data     0.999999                       # miss rate for overall accesses
system.l2cache.overall_miss_rate::total      0.999923                       # miss rate for overall accesses
system.l2cache.demand_avg_miss_latency::.cpu.inst 101079.889807                       # average overall miss latency
system.l2cache.demand_avg_miss_latency::.cpu.data 100923.381386                       # average overall miss latency
system.l2cache.demand_avg_miss_latency::total 100923.501329                       # average overall miss latency
system.l2cache.overall_avg_miss_latency::.cpu.inst 101079.889807                       # average overall miss latency
system.l2cache.overall_avg_miss_latency::.cpu.data 100923.381386                       # average overall miss latency
system.l2cache.overall_avg_miss_latency::total 100923.501329                       # average overall miss latency
system.l2cache.blocked_cycles::no_mshrs             0                       # number of cycles access was blocked
system.l2cache.blocked_cycles::no_targets            0                       # number of cycles access was blocked
system.l2cache.blocked::no_mshrs                    0                       # number of cycles access was blocked
system.l2cache.blocked::no_targets                  0                       # number of cycles access was blocked
[...]
system.mem_ctrl.requestorReadRate::.cpu.data 446483981.450153231621                       # Per-requestor bytes read from memory rate (Bytes/sec)
system.mem_ctrl.requestorWriteRate::.writebacks 441336172.578476488590                       # Per-requestor bytes write to memory rate (Bytes/sec)
system.mem_ctrl.requestorReadAccesses::.cpu.inst         1088                       # Per-requestor read serviced memory accesses
system.mem_ctrl.requestorReadAccesses::.cpu.data      1419903                       # Per-requestor read serviced memory accesses
system.mem_ctrl.requestorWriteAccesses::.writebacks      1403563                       # Per-requestor write serviced memory accesses
system.mem_ctrl.requestorReadTotalLat::.cpu.inst     32458000                       # Per-requestor read total memory access latency
system.mem_ctrl.requestorReadTotalLat::.cpu.data  42116829500                       # Per-requestor read total memory access latency
system.mem_ctrl.requestorWriteTotalLat::.writebacks 4938945906250                       # Per-requestor write total memory access latency
system.mem_ctrl.requestorReadAvgLat::.cpu.inst     29832.72                       # Per-requestor read average memory access latency
system.mem_ctrl.requestorReadAvgLat::.cpu.data     29661.77                       # Per-requestor read average memory access latency
system.mem_ctrl.requestorWriteAvgLat::.writebacks   3518863.00                       # Per-requestor write average memory access latency
system.mem_ctrl.dram.bytes_read::.cpu.inst        69632                       # Number of bytes read from this memory
system.mem_ctrl.dram.bytes_read::.cpu.data     90873792                       # Number of bytes read from this memory
system.mem_ctrl.dram.bytes_read::total       90943424                       # Number of bytes read from this memory
system.mem_ctrl.dram.bytes_inst_read::.cpu.inst        69632                       # Number of instructions bytes read from this memory
system.mem_ctrl.dram.bytes_inst_read::total        69632                       # Number of instructions bytes read from this memory
system.mem_ctrl.dram.bytes_written::.writebacks     89828032                       # Number of bytes written to this memory
system.mem_ctrl.dram.bytes_written::total     89828032                       # Number of bytes written to this memory
system.mem_ctrl.dram.num_reads::.cpu.inst         1088                       # Number of read requests responded to by this memory
system.mem_ctrl.dram.num_reads::.cpu.data      1419903                       # Number of read requests responded to by this memory
system.mem_ctrl.dram.num_reads::total         1420991                       # Number of read requests responded to by this memory
system.mem_ctrl.dram.num_writes::.writebacks      1403563                       # Number of write requests responded to by this memory
system.mem_ctrl.dram.num_writes::total        1403563                       # Number of write requests responded to by this memory
system.mem_ctrl.dram.bw_read::.cpu.inst        342118                       # Total read bandwidth from this memory (bytes/s)
system.mem_ctrl.dram.bw_read::.cpu.data     446483981                       # Total read bandwidth from this memory (bytes/s)
system.mem_ctrl.dram.bw_read::total         446826100                       # Total read bandwidth from this memory (bytes/s)
system.mem_ctrl.dram.bw_inst_read::.cpu.inst       342118                       # Instruction read bandwidth from this memory (bytes/s)
system.mem_ctrl.dram.bw_inst_read::total       342118                       # Instruction read bandwidth from this memory (bytes/s)
system.mem_ctrl.dram.bw_write::.writebacks    441345920                       # Write bandwidth from this memory (bytes/s)
system.mem_ctrl.dram.bw_write::total        441345920                       # Write bandwidth from this memory (bytes/s)
system.mem_ctrl.dram.bw_total::.writebacks    441345920                       # Total bandwidth to/from this memory (bytes/s)
system.mem_ctrl.dram.bw_total::.cpu.inst       342118                       # Total bandwidth to/from this memory (bytes/s)
system.mem_ctrl.dram.bw_total::.cpu.data    446483981                       # Total bandwidth to/from this memory (bytes/s)
system.mem_ctrl.dram.bw_total::total        888172020                       # Total bandwidth to/from this memory (bytes/s)
system.mem_ctrl.dram.readBursts               1420991                       # Number of DRAM read bursts
system.mem_ctrl.dram.writeBursts              1403532                       # Number of DRAM write bursts
system.mem_ctrl.dram.perBankRdBursts::0         88827                       # Per bank write bursts
system.mem_ctrl.dram.perBankRdBursts::1         88754                       # Per bank write bursts
system.mem_ctrl.dram.perBankRdBursts::2         88801                       # Per bank write bursts
system.mem_ctrl.dram.perBankRdBursts::3         88799                       # Per bank write bursts
system.mem_ctrl.dram.perBankRdBursts::4         88837                       # Per bank write bursts
system.mem_ctrl.dram.perBankRdBursts::5         88743                       # Per bank write bursts
system.mem_ctrl.dram.perBankRdBursts::6         88846                       # Per bank write bursts
system.mem_ctrl.dram.perBankRdBursts::7         88785                       # Per bank write bursts
system.mem_ctrl.dram.perBankRdBursts::8         88871                       # Per bank write bursts
system.mem_ctrl.dram.perBankRdBursts::9         88874                       # Per bank write bursts
system.mem_ctrl.dram.perBankRdBursts::10        88860                       # Per bank write bursts
system.mem_ctrl.dram.perBankRdBursts::11        88783                       # Per bank write bursts
system.mem_ctrl.dram.perBankRdBursts::12        88812                       # Per bank write bursts
system.mem_ctrl.dram.perBankRdBursts::13        88803                       # Per bank write bursts
system.mem_ctrl.dram.perBankRdBursts::14        88799                       # Per bank write bursts
system.mem_ctrl.dram.perBankRdBursts::15        88797                       # Per bank write bursts
system.mem_ctrl.dram.perBankWrBursts::0         87703                       # Per bank write bursts
system.mem_ctrl.dram.perBankWrBursts::1         87688                       # Per bank write bursts
system.mem_ctrl.dram.perBankWrBursts::2         87691                       # Per bank write bursts
system.mem_ctrl.dram.perBankWrBursts::3         87694                       # Per bank write bursts
system.mem_ctrl.dram.perBankWrBursts::4         87687                       # Per bank write bursts
system.mem_ctrl.dram.perBankWrBursts::5         87681                       # Per bank write bursts
system.mem_ctrl.dram.perBankWrBursts::6         87692                       # Per bank write bursts
system.mem_ctrl.dram.perBankWrBursts::7         87704                       # Per bank write bursts
system.mem_ctrl.dram.perBankWrBursts::8         87731                       # Per bank write bursts
system.mem_ctrl.dram.perBankWrBursts::9         87772                       # Per bank write bursts
system.mem_ctrl.dram.perBankWrBursts::10        87826                       # Per bank write bursts
system.mem_ctrl.dram.perBankWrBursts::11        87734                       # Per bank write bursts
system.mem_ctrl.dram.perBankWrBursts::12        87747                       # Per bank write bursts
system.mem_ctrl.dram.perBankWrBursts::13        87717                       # Per bank write bursts
system.mem_ctrl.dram.perBankWrBursts::14        87733                       # Per bank write bursts
system.mem_ctrl.dram.perBankWrBursts::15        87732                       # Per bank write bursts
system.mem_ctrl.dram.totQLat              15505706250                       # Total ticks spent queuing
system.mem_ctrl.dram.totBusLat             7104955000                       # Total ticks spent in databus transfers
system.mem_ctrl.dram.totMemAccLat         42149287500                       # Total ticks spent from burst creation until serviced by the DRAM
system.mem_ctrl.dram.avgQLat                 10911.90                       # Average queueing delay per DRAM burst
system.mem_ctrl.dram.avgBusLat                5000.00                       # Average bus latency per DRAM burst
system.mem_ctrl.dram.avgMemAccLat            29661.90                       # Average memory access latency per DRAM burst
system.mem_ctrl.dram.readRowHits              1297387                       # Number of row buffer hits during reads
system.mem_ctrl.dram.writeRowHits             1301166                       # Number of row buffer hits during writes
system.mem_ctrl.dram.readRowHitRate             91.30                       # Row buffer hit rate for reads
system.mem_ctrl.dram.writeRowHitRate            92.71                       # Row buffer hit rate for writes
system.mem_ctrl.dram.bytesPerActivate::samples       225958                       # Bytes accessed per row activation
system.mem_ctrl.dram.bytesPerActivate::mean   800.002549                       # Bytes accessed per row activation
system.mem_ctrl.dram.bytesPerActivate::gmean   665.773953                       # Bytes accessed per row activation
system.mem_ctrl.dram.bytesPerActivate::stdev   329.853305                       # Bytes accessed per row activation
system.mem_ctrl.dram.bytesPerActivate::0-127         9690      4.29%      4.29% # Bytes accessed per row activation
system.mem_ctrl.dram.bytesPerActivate::128-255        16063      7.11%     11.40% # Bytes accessed per row activation
system.mem_ctrl.dram.bytesPerActivate::256-383        10589      4.69%     16.08% # Bytes accessed per row activation
system.mem_ctrl.dram.bytesPerActivate::384-511        11302      5.00%     21.09% # Bytes accessed per row activation
system.mem_ctrl.dram.bytesPerActivate::512-639        13199      5.84%     26.93% # Bytes accessed per row activation
system.mem_ctrl.dram.bytesPerActivate::640-767         8380      3.71%     30.64% # Bytes accessed per row activation
system.mem_ctrl.dram.bytesPerActivate::768-895         9120      4.04%     34.67% # Bytes accessed per row activation
system.mem_ctrl.dram.bytesPerActivate::896-1023        12176      5.39%     40.06% # Bytes accessed per row activation
system.mem_ctrl.dram.bytesPerActivate::1024-1151       135439     59.94%    100.00% # Bytes accessed per row activation
system.mem_ctrl.dram.bytesPerActivate::total       225958                       # Bytes accessed per row activation
system.mem_ctrl.dram.bytesRead               90943424                       # Total number of bytes read from DRAM
system.mem_ctrl.dram.bytesWritten            89826048                       # Total number of bytes written to DRAM
system.mem_ctrl.dram.avgRdBW               446.826100                       # Average DRAM read bandwidth in MiBytes/s
system.mem_ctrl.dram.avgWrBW               441.336173                       # Average DRAM write bandwidth in MiBytes/s
system.mem_ctrl.dram.peakBW                  12800.00                       # Theoretical peak bandwidth in MiByte/s
system.mem_ctrl.dram.busUtil                     6.94                       # Data bus utilization in percentage
system.mem_ctrl.dram.busUtilRead                 3.49                       # Data bus utilization in percentage for reads
system.mem_ctrl.dram.busUtilWrite                3.45                       # Data bus utilization in percentage for writes
system.mem_ctrl.dram.pageHitRate                92.00                       # Row buffer hit rate, read and write combined
system.mem_ctrl.dram.power_state.pwrStateResidencyTicks::UNDEFINED 203532032000                       # Cumulative time (in ticks) in various power states
system.mem_ctrl.dram.rank0.actEnergy        804313860                       # Energy for activate commands per rank (pJ)
system.mem_ctrl.dram.rank0.preEnergy        427483980                       # Energy for precharge commands per rank (pJ)
system.mem_ctrl.dram.rank0.readEnergy      5072198880                       # Energy for read commands per rank (pJ)
system.mem_ctrl.dram.rank0.writeEnergy     3662038800                       # Energy for write commands per rank (pJ)
system.mem_ctrl.dram.rank0.refreshEnergy 16066074960.000002                       # Energy for refresh commands per rank (pJ)
system.mem_ctrl.dram.rank0.actBackEnergy  47952342690                       # Energy for active background per rank (pJ)
system.mem_ctrl.dram.rank0.preBackEnergy  37775380320                       # Energy for precharge background per rank (pJ)
system.mem_ctrl.dram.rank0.actPowerDownEnergy            0                       # Energy for active power-down per rank (pJ)
system.mem_ctrl.dram.rank0.prePowerDownEnergy            0                       # Energy for precharge power-down per rank (pJ)
system.mem_ctrl.dram.rank0.selfRefreshEnergy            0                       # Energy for self refresh per rank (pJ)
system.mem_ctrl.dram.rank0.totalEnergy   111759833490                       # Total energy per rank (pJ)
system.mem_ctrl.dram.rank0.averagePower    549.101939                       # Core power per rank (mW)
system.mem_ctrl.dram.rank0.totalIdleTime            0                       # Total Idle time Per DRAM Rank
system.mem_ctrl.dram.rank0.pwrStateTime::IDLE  96966432500                       # Time in different power states
system.mem_ctrl.dram.rank0.pwrStateTime::REF   6796140000                       # Time in different power states
system.mem_ctrl.dram.rank0.pwrStateTime::SREF            0                       # Time in different power states
system.mem_ctrl.dram.rank0.pwrStateTime::PRE_PDN            0                       # Time in different power states
system.mem_ctrl.dram.rank0.pwrStateTime::ACT  99769459500                       # Time in different power states
system.mem_ctrl.dram.rank0.pwrStateTime::ACT_PDN            0                       # Time in different power states
system.mem_ctrl.dram.rank1.actEnergy        809111940                       # Energy for activate commands per rank (pJ)
system.mem_ctrl.dram.rank1.preEnergy        430026630                       # Energy for precharge commands per rank (pJ)
system.mem_ctrl.dram.rank1.readEnergy      5073676860                       # Energy for read commands per rank (pJ)
system.mem_ctrl.dram.rank1.writeEnergy     3664398240                       # Energy for write commands per rank (pJ)
system.mem_ctrl.dram.rank1.refreshEnergy 16066074960.000002                       # Energy for refresh commands per rank (pJ)
system.mem_ctrl.dram.rank1.actBackEnergy  47938761300                       # Energy for active background per rank (pJ)
system.mem_ctrl.dram.rank1.preBackEnergy  37786817280                       # Energy for precharge background per rank (pJ)
system.mem_ctrl.dram.rank1.actPowerDownEnergy            0                       # Energy for active power-down per rank (pJ)
system.mem_ctrl.dram.rank1.prePowerDownEnergy            0                       # Energy for precharge power-down per rank (pJ)
system.mem_ctrl.dram.rank1.selfRefreshEnergy            0                       # Energy for self refresh per rank (pJ)
system.mem_ctrl.dram.rank1.totalEnergy   111768867210                       # Total energy per rank (pJ)
system.mem_ctrl.dram.rank1.averagePower    549.146324                       # Core power per rank (mW)
system.mem_ctrl.dram.rank1.totalIdleTime            0                       # Total Idle time Per DRAM Rank
system.mem_ctrl.dram.rank1.pwrStateTime::IDLE  96995064250                       # Time in different power states
system.mem_ctrl.dram.rank1.pwrStateTime::REF   6796140000                       # Time in different power states
system.mem_ctrl.dram.rank1.pwrStateTime::SREF            0                       # Time in different power states
system.mem_ctrl.dram.rank1.pwrStateTime::PRE_PDN            0                       # Time in different power states
system.mem_ctrl.dram.rank1.pwrStateTime::ACT  99740827750                       # Time in different power states
system.mem_ctrl.dram.rank1.pwrStateTime::ACT_PDN            0                       # Time in different power states
system.mem_ctrl.power_state.pwrStateResidencyTicks::UNDEFINED 203532032000                       # Cumulative time (in ticks) in various power states
system.membus.trans_dist::ReadResp            1353114                       # Transaction distribution
system.membus.trans_dist::WritebackDirty      1403563                       # Transaction distribution
system.membus.trans_dist::CleanEvict              954                       # Transaction distribution
system.membus.trans_dist::ReadExReq             67877                       # Transaction distribution
system.membus.trans_dist::ReadExResp            67877                       # Transaction distribution
system.membus.trans_dist::ReadSharedReq       1353114                       # Transaction distribution
system.membus.pkt_count_system.l2cache.mem_side_port::system.mem_ctrl.port      4246499                       # Packet count per connected requestor and responder (bytes)
system.membus.pkt_count_system.l2cache.mem_side_port::total      4246499                       # Packet count per connected requestor and responder (bytes)
system.membus.pkt_count::total                4246499                       # Packet count per connected requestor and responder (bytes)
system.membus.pkt_size_system.l2cache.mem_side_port::system.mem_ctrl.port    180771456                       # Cumulative packet size per connected requestor and responder (bytes)
system.membus.pkt_size_system.l2cache.mem_side_port::total    180771456                       # Cumulative packet size per connected requestor and responder (bytes)
system.membus.pkt_size::total               180771456                       # Cumulative packet size per connected requestor and responder (bytes)
system.membus.snoops                                0                       # Total snoops (count)
system.membus.snoopTraffic                          0                       # Total snoop traffic (bytes)
system.membus.snoop_fanout::samples           1420991                       # Request fanout histogram
system.membus.snoop_fanout::mean                    0                       # Request fanout histogram
system.membus.snoop_fanout::stdev                   0                       # Request fanout histogram
system.membus.snoop_fanout::underflows              0      0.00%      0.00% # Request fanout histogram
system.membus.snoop_fanout::0                 1420991    100.00%    100.00% # Request fanout histogram
system.membus.snoop_fanout::1                       0      0.00%    100.00% # Request fanout histogram
system.membus.snoop_fanout::overflows               0      0.00%    100.00% # Request fanout histogram
system.membus.snoop_fanout::min_value               0                       # Request fanout histogram
system.membus.snoop_fanout::max_value               0                       # Request fanout histogram
system.membus.snoop_fanout::total             1420991                       # Request fanout histogram
system.membus.power_state.pwrStateResidencyTicks::UNDEFINED 203532032000                       # Cumulative time (in ticks) in various power states
system.membus.reqLayer2.occupancy          8439760000                       # Layer occupancy (ticks)
system.membus.reqLayer2.utilization               4.1                       # Layer utilization (%)
system.membus.respLayer0.occupancy         7476713750                       # Layer occupancy (ticks)
system.membus.respLayer0.utilization              3.7                       # Layer utilization (%)

---------- End Simulation Statistics   ----------
