
---------- Begin Simulation Statistics ----------
final_tick                               794516752000                       # Number of ticks from beginning of simulation (restored from checkpoints and never reset)
host_inst_rate                                 419522                       # Simulator instruction rate (inst/s)
host_mem_usage                                 674444                       # Number of bytes of host memory used
host_op_rate                                   675884                       # Simulator op (including micro ops) rate (op/s)
host_seconds                                   387.30                       # Real time elapsed on the host
host_tick_rate                             2051405673                       # Simulator tick rate (ticks/s)
sim_freq                                 1000000000000                       # Frequency of simulated ticks
sim_insts                                   162482124                       # Number of instructions simulated
sim_ops                                     261772116                       # Number of ops (including micro ops) simulated
sim_seconds                                  0.794517                       # Number of seconds simulated
sim_ticks                                794516752000                       # Number of ticks simulated
system.cpu.Branches                           1513281                       # Number of branches fetched
system.cpu.committedInsts                   162482124                       # Number of instructions committed
system.cpu.committedOps                     261772116                       # Number of ops (including micro ops) committed
system.cpu.idle_fraction                     0.000000                       # Percentage of idle cycles
system.cpu.not_idle_fraction                 1.000000                       # Percentage of non-idle cycles
system.cpu.numCycles                        794516752                       # number of cpu cycles simulated
system.cpu.numWorkItemsCompleted                    0                       # number of work items this cpu completed
system.cpu.numWorkItemsStarted                      0                       # number of work items this cpu started
system.cpu.num_busy_cycles               794516751.999000                       # Number of busy cycles
system.cpu.num_cc_register_reads              7365424                       # number of times the CC registers were read
system.cpu.num_cc_register_writes            11742808                       # number of times the CC registers were written
system.cpu.num_conditional_control_insts      1421663                       # number of instructions that are conditional controls
system.cpu.num_fp_alu_accesses              228031846                       # Number of float alu accesses
system.cpu.num_fp_insts                     228031846                       # number of float instructions
system.cpu.num_fp_register_reads            368336050                       # number of times the floating registers were read
system.cpu.num_fp_register_writes           210807642                       # number of times the floating registers were written
system.cpu.num_func_calls                       53430                       # number of times a function call or return occured
system.cpu.num_idle_cycles                   0.001000                       # Number of idle cycles
system.cpu.num_int_alu_accesses             103312597                       # Number of integer alu accesses
system.cpu.num_int_insts                    103312597                       # number of integer instructions
system.cpu.num_int_register_reads           260490982                       # number of times the integer registers were read
system.cpu.num_int_register_writes           28267146                       # number of times the integer registers were written
system.cpu.num_load_insts                    54401385                       # Number of load instructions
system.cpu.num_mem_refs                      75494996                       # number of memory refs
system.cpu.num_store_insts                   21093611                       # Number of store instructions
system.cpu.num_vec_alu_accesses                     0                       # Number of vector alu accesses
system.cpu.num_vec_insts                            0                       # number of vector instructions
system.cpu.num_vec_register_reads                   0                       # number of times the vector registers were read
system.cpu.num_vec_register_writes                  0                       # number of times the vector registers were written
system.cpu.op_class::No_OpClass                114297      0.04%      0.04% # Class of executed instruction
system.cpu.op_class::IntAlu                  64498460     24.64%     24.68% # Class of executed instruction
system.cpu.op_class::IntMult                    19665      0.01%     24.69% # Class of executed instruction
system.cpu.op_class::IntDiv                      1316      0.00%     24.69% # Class of executed instruction
system.cpu.op_class::FloatAdd                26235189     10.02%     34.71% # Class of executed instruction
system.cpu.op_class::FloatCmp                       0      0.00%     34.71% # Class of executed instruction
system.cpu.op_class::FloatCvt                       0      0.00%     34.71% # Class of executed instruction
system.cpu.op_class::FloatMult                      0      0.00%     34.71% # Class of executed instruction
system.cpu.op_class::FloatMultAcc                   0      0.00%     34.71% # Class of executed instruction
system.cpu.op_class::FloatDiv                       0      0.00%     34.71% # Class of executed instruction
system.cpu.op_class::FloatMisc                      0      0.00%     34.71% # Class of executed instruction
system.cpu.op_class::FloatSqrt                      0      0.00%     34.71% # Class of executed instruction
system.cpu.op_class::SimdAdd                     8730      0.00%     34.72% # Class of executed instruction
system.cpu.op_class::SimdAddAcc                     0      0.00%     34.72% # Class of executed instruction
system.cpu.op_class::SimdAlu                  8054809      3.08%     37.79% # Class of executed instruction
system.cpu.op_class::SimdCmp                       18      0.00%     37.79% # Class of executed instruction
system.cpu.op_class::SimdCvt                     1500      0.00%     37.79% # Class of executed instruction
system.cpu.op_class::SimdMisc                  476679      0.18%     37.98% # Class of executed instruction
system.cpu.op_class::SimdMult                       0      0.00%     37.98% # Class of executed instruction
system.cpu.op_class::SimdMultAcc                    0      0.00%     37.98% # Class of executed instruction
system.cpu.op_class::SimdShift                      9      0.00%     37.98% # Class of executed instruction
system.cpu.op_class::SimdShiftAcc                   0      0.00%     37.98% # Class of executed instruction
system.cpu.op_class::SimdDiv                        0      0.00%     37.98% # Class of executed instruction
system.cpu.op_class::SimdSqrt                       0      0.00%     37.98% # Class of executed instruction
system.cpu.op_class::SimdFloatAdd            34232648     13.08%     51.05% # Class of executed instruction
system.cpu.op_class::SimdFloatAlu                   0      0.00%     51.05% # Class of executed instruction
system.cpu.op_class::SimdFloatCmp                   0      0.00%     51.05% # Class of executed instruction
system.cpu.op_class::SimdFloatCvt              101836      0.04%     51.09% # Class of executed instruction
system.cpu.op_class::SimdFloatDiv             1077659      0.41%     51.50% # Class of executed instruction
system.cpu.op_class::SimdFloatMisc                  0      0.00%     51.50% # Class of executed instruction
system.cpu.op_class::SimdFloatMult           51454394     19.66%     71.16% # Class of executed instruction
system.cpu.op_class::SimdFloatMultAcc               0      0.00%     71.16% # Class of executed instruction
system.cpu.op_class::SimdFloatSqrt                 25      0.00%     71.16% # Class of executed instruction
system.cpu.op_class::SimdReduceAdd                  0      0.00%     71.16% # Class of executed instruction
system.cpu.op_class::SimdReduceAlu                  0      0.00%     71.16% # Class of executed instruction
system.cpu.op_class::SimdReduceCmp                  0      0.00%     71.16% # Class of executed instruction
system.cpu.op_class::SimdFloatReduceAdd             0      0.00%     71.16% # Class of executed instruction
system.cpu.op_class::SimdFloatReduceCmp             0      0.00%     71.16% # Class of executed instruction
system.cpu.op_class::SimdAes                        0      0.00%     71.16% # Class of executed instruction
system.cpu.op_class::SimdAesMix                     0      0.00%     71.16% # Class of executed instruction
system.cpu.op_class::SimdSha1Hash                   0      0.00%     71.16% # Class of executed instruction
system.cpu.op_class::SimdSha1Hash2                  0      0.00%     71.16% # Class of executed instruction
system.cpu.op_class::SimdSha256Hash                 0      0.00%     71.16% # Class of executed instruction
system.cpu.op_class::SimdSha256Hash2                0      0.00%     71.16% # Class of executed instruction
system.cpu.op_class::SimdShaSigma2                  0      0.00%     71.16% # Class of executed instruction
system.cpu.op_class::SimdShaSigma3                  0      0.00%     71.16% # Class of executed instruction
system.cpu.op_class::SimdPredAlu                    0      0.00%     71.16% # Class of executed instruction
system.cpu.op_class::MemRead                  2072680      0.79%     71.95% # Class of executed instruction
system.cpu.op_class::MemWrite                 3871051      1.48%     73.43% # Class of executed instruction
system.cpu.op_class::FloatMemRead            52328705     19.99%     93.42% # Class of executed instruction
system.cpu.op_class::FloatMemWrite           17222560      6.58%    100.00% # Class of executed instruction
system.cpu.op_class::IprAccess                      0      0.00%    100.00% # Class of executed instruction
system.cpu.op_class::InstPrefetch                   0      0.00%    100.00% # Class of executed instruction
system.cpu.op_class::total                  261772230                       # Class of executed instruction
system.cpu.workload.numSyscalls                    89                       # Number of system calls
system.l2bus.snoop_filter.hit_multi_requests            0                       # Number of requests hitting in the snoop filter with multiple (>1) holders of the requested data.
system.l2bus.snoop_filter.hit_multi_snoops            0                       # Number of snoops hitting in the snoop filter with multiple (>1) holders of the requested data.
system.l2bus.snoop_filter.hit_single_requests      3054377                       # Number of requests hitting in the snoop filter with a single holder of the requested data.
system.l2bus.snoop_filter.hit_single_snoops       374912                       # Number of snoops hitting in the snoop filter with a single holder of the requested data.
system.l2bus.snoop_filter.tot_requests        6110034                       # Total number of requests made to the snoop filter.
system.l2bus.snoop_filter.tot_snoops           374912                       # Total number of snoops made to the snoop filter.
system.membus.snoop_filter.hit_multi_requests            0                       # Number of requests hitting in the snoop filter with multiple (>1) holders of the requested data.
system.membus.snoop_filter.hit_multi_snoops            0                       # Number of snoops hitting in the snoop filter with multiple (>1) holders of the requested data.
system.membus.snoop_filter.hit_single_requests       792208                       # Number of requests hitting in the snoop filter with a single holder of the requested data.
system.membus.snoop_filter.hit_single_snoops            0                       # Number of snoops hitting in the snoop filter with a single holder of the requested data.
system.membus.snoop_filter.tot_requests       1586786                       # Total number of requests made to the snoop filter.
system.membus.snoop_filter.tot_snoops               0                       # Total number of snoops made to the snoop filter.
system.clk_domain.clock                          1000                       # Clock period in ticks
system.clk_domain.voltage_domain.voltage            1                       # Voltage in Volts
system.cpu.dcache.demand_hits::.cpu.data     72495181                       # number of demand (read+write) hits
system.cpu.dcache.demand_hits::total         72495181                       # number of demand (read+write) hits
system.cpu.dcache.overall_hits::.cpu.data     72495181                       # number of overall hits
system.cpu.dcache.overall_hits::total        72495181                       # number of overall hits
system.cpu.dcache.demand_misses::.cpu.data      2999950                       # number of demand (read+write) misses
system.cpu.dcache.demand_misses::total        2999950                       # number of demand (read+write) misses
system.cpu.dcache.overall_misses::.cpu.data      2999950                       # number of overall misses
system.cpu.dcache.overall_misses::total       2999950                       # number of overall misses
system.cpu.dcache.demand_miss_latency::.cpu.data 136500421000                       # number of demand (read+write) miss cycles
system.cpu.dcache.demand_miss_latency::total 136500421000                       # number of demand (read+write) miss cycles
system.cpu.dcache.overall_miss_latency::.cpu.data 136500421000                       # number of overall miss cycles
system.cpu.dcache.overall_miss_latency::total 136500421000                       # number of overall miss cycles
system.cpu.dcache.demand_accesses::.cpu.data     75495131                       # number of demand (read+write) accesses
system.cpu.dcache.demand_accesses::total     75495131                       # number of demand (read+write) accesses
system.cpu.dcache.overall_accesses::.cpu.data     75495131                       # number of overall (read+write) accesses
system.cpu.dcache.overall_accesses::total     75495131                       # number of overall (read+write) accesses
system.cpu.dcache.demand_miss_rate::.cpu.data     0.039737                       # miss rate for demand accesses
system.cpu.dcache.demand_miss_rate::total     0.039737                       # miss rate for demand accesses
system.cpu.dcache.overall_miss_rate::.cpu.data     0.039737                       # miss rate for overall accesses
system.cpu.dcache.overall_miss_rate::total     0.039737                       # miss rate for overall accesses
system.cpu.dcache.demand_avg_miss_latency::.cpu.data 45500.898682                       # average overall miss latency
system.cpu.dcache.demand_avg_miss_latency::total 45500.898682                       # average overall miss latency
system.cpu.dcache.overall_avg_miss_latency::.cpu.data 45500.898682                       # average overall miss latency
system.cpu.dcache.overall_avg_miss_latency::total 45500.898682                       # average overall miss latency
system.cpu.dcache.blocked_cycles::no_mshrs            0                       # number of cycles access was blocked
system.cpu.dcache.blocked_cycles::no_targets            0                       # number of cycles access was blocked
system.cpu.dcache.blocked::no_mshrs                 0                       # number of cycles access was blocked
system.cpu.dcache.blocked::no_targets               0                       # number of cycles access was blocked
system.cpu.dcache.avg_blocked_cycles::no_mshrs          nan                       # average number of cycles each access was blocked
system.cpu.dcache.avg_blocked_cycles::no_targets          nan                       # average number of cycles each access was blocked
system.cpu.dcache.writebacks::.writebacks      2418788                       # number of writebacks
system.cpu.dcache.writebacks::total           2418788                       # number of writebacks
system.cpu.dcache.demand_mshr_misses::.cpu.data      2999950                       # number of demand (read+write) MSHR misses
system.cpu.dcache.demand_mshr_misses::total      2999950                       # number of demand (read+write) MSHR misses
system.cpu.dcache.overall_mshr_misses::.cpu.data      2999950                       # number of overall MSHR misses
system.cpu.dcache.overall_mshr_misses::total      2999950                       # number of overall MSHR misses
system.cpu.dcache.demand_mshr_miss_latency::.cpu.data 130500521000                       # number of demand (read+write) MSHR miss cycles
system.cpu.dcache.demand_mshr_miss_latency::total 130500521000                       # number of demand (read+write) MSHR miss cycles
system.cpu.dcache.overall_mshr_miss_latency::.cpu.data 130500521000                       # number of overall MSHR miss cycles
system.cpu.dcache.overall_mshr_miss_latency::total 130500521000                       # number of overall MSHR miss cycles
system.cpu.dcache.demand_mshr_miss_rate::.cpu.data     0.039737                       # mshr miss rate for demand accesses
system.cpu.dcache.demand_mshr_miss_rate::total     0.039737                       # mshr miss rate for demand accesses
system.cpu.dcache.overall_mshr_miss_rate::.cpu.data     0.039737                       # mshr miss rate for overall accesses
system.cpu.dcache.overall_mshr_miss_rate::total     0.039737                       # mshr miss rate for overall accesses
system.cpu.dcache.demand_avg_mshr_miss_latency::.cpu.data 43500.898682                       # average overall mshr miss latency
system.cpu.dcache.demand_avg_mshr_miss_latency::total 43500.898682                       # average overall mshr miss latency
system.cpu.dcache.overall_avg_mshr_miss_latency::.cpu.data 43500.898682                       # average overall mshr miss latency
system.cpu.dcache.overall_avg_mshr_miss_latency::total 43500.898682                       # average overall mshr miss latency
system.cpu.dcache.replacements                2998926                       # number of replacements
system.cpu.dcache.ReadReq_hits::.cpu.data     52517217                       # number of ReadReq hits
system.cpu.dcache.ReadReq_hits::total        52517217                       # number of ReadReq hits
system.cpu.dcache.ReadReq_misses::.cpu.data      1884286                       # number of ReadReq misses
system.cpu.dcache.ReadReq_misses::total       1884286                       # number of ReadReq misses
system.cpu.dcache.ReadReq_miss_latency::.cpu.data  93477456000                       # number of ReadReq miss cycles
system.cpu.dcache.ReadReq_miss_latency::total  93477456000                       # number of ReadReq miss cycles
system.cpu.dcache.ReadReq_accesses::.cpu.data     54401503                       # number of ReadReq accesses(hits+misses)
system.cpu.dcache.ReadReq_accesses::total     54401503                       # number of ReadReq accesses(hits+misses)
system.cpu.dcache.ReadReq_miss_rate::.cpu.data     0.034637                       # miss rate for ReadReq accesses
system.cpu.dcache.ReadReq_miss_rate::total     0.034637                       # miss rate for ReadReq accesses
system.cpu.dcache.ReadReq_avg_miss_latency::.cpu.data 49608.953206                       # average ReadReq miss latency
system.cpu.dcache.ReadReq_avg_miss_latency::total 49608.953206                       # average ReadReq miss latency
system.cpu.dcache.ReadReq_mshr_misses::.cpu.data      1884286                       # number of ReadReq MSHR misses
system.cpu.dcache.ReadReq_mshr_misses::total      1884286                       # number of ReadReq MSHR misses
system.cpu.dcache.ReadReq_mshr_miss_latency::.cpu.data  89708884000                       # number of ReadReq MSHR miss cycles
system.cpu.dcache.ReadReq_mshr_miss_latency::total  89708884000                       # number of ReadReq MSHR miss cycles
system.cpu.dcache.ReadReq_mshr_miss_rate::.cpu.data     0.034637                       # mshr miss rate for ReadReq accesses
system.cpu.dcache.ReadReq_mshr_miss_rate::total     0.034637                       # mshr miss rate for ReadReq accesses
system.cpu.dcache.ReadReq_avg_mshr_miss_latency::.cpu.data 47608.953206                       # average ReadReq mshr miss latency
system.cpu.dcache.ReadReq_avg_mshr_miss_latency::total 47608.953206                       # average ReadReq mshr miss latency
system.cpu.dcache.WriteReq_hits::.cpu.data     19977964                       # number of WriteReq hits
system.cpu.dcache.WriteReq_hits::total       19977964                       # number of WriteReq hits
system.cpu.dcache.WriteReq_misses::.cpu.data      1115664                       # number of WriteReq misses
system.cpu.dcache.WriteReq_misses::total      1115664                       # number of WriteReq misses
system.cpu.dcache.WriteReq_miss_latency::.cpu.data  43022965000                       # number of WriteReq miss cycles
system.cpu.dcache.WriteReq_miss_latency::total  43022965000                       # number of WriteReq miss cycles
system.cpu.dcache.WriteReq_accesses::.cpu.data     21093628                       # number of WriteReq accesses(hits+misses)
system.cpu.dcache.WriteReq_accesses::total     21093628                       # number of WriteReq accesses(hits+misses)
system.cpu.dcache.WriteReq_miss_rate::.cpu.data     0.052891                       # miss rate for WriteReq accesses
system.cpu.dcache.WriteReq_miss_rate::total     0.052891                       # miss rate for WriteReq accesses
system.cpu.dcache.WriteReq_avg_miss_latency::.cpu.data 38562.654168                       # average WriteReq miss latency
system.cpu.dcache.WriteReq_avg_miss_latency::total 38562.654168                       # average WriteReq miss latency
system.cpu.dcache.WriteReq_mshr_misses::.cpu.data      1115664                       # number of WriteReq MSHR misses
system.cpu.dcache.WriteReq_mshr_misses::total      1115664                       # number of WriteReq MSHR misses
system.cpu.dcache.WriteReq_mshr_miss_latency::.cpu.data  40791637000                       # number of WriteReq MSHR miss cycles
system.cpu.dcache.WriteReq_mshr_miss_latency::total  40791637000                       # number of WriteReq MSHR miss cycles
system.cpu.dcache.WriteReq_mshr_miss_rate::.cpu.data     0.052891                       # mshr miss rate for WriteReq accesses
system.cpu.dcache.WriteReq_mshr_miss_rate::total     0.052891                       # mshr miss rate for WriteReq accesses
system.cpu.dcache.WriteReq_avg_mshr_miss_latency::.cpu.data 36562.654168                       # average WriteReq mshr miss latency
system.cpu.dcache.WriteReq_avg_mshr_miss_latency::total 36562.654168                       # average WriteReq mshr miss latency
system.cpu.dcache.power_state.pwrStateResidencyTicks::UNDEFINED 794516752000                       # Cumulative time (in ticks) in various power states
system.cpu.dcache.tags.tagsinuse          1023.454783                       # Cycle average of tags in use
system.cpu.dcache.tags.total_refs            75495131                       # Total number of references to valid blocks.
system.cpu.dcache.tags.sampled_refs           2999950                       # Sample count of references to valid blocks.
system.cpu.dcache.tags.avg_refs             25.165463                       # Average number of references to valid blocks.
system.cpu.dcache.tags.warmup_cycle            224000                       # Cycle when the warmup percentage was hit.
system.cpu.dcache.tags.occ_blocks::.cpu.data  1023.454783                       # Average occupied blocks per requestor
system.cpu.dcache.tags.occ_percent::.cpu.data     0.999468                       # Average percentage of cache occupancy
system.cpu.dcache.tags.occ_percent::total     0.999468                       # Average percentage of cache occupancy
system.cpu.dcache.tags.occ_task_id_blocks::1024         1024                       # Occupied blocks per task id
system.cpu.dcache.tags.age_task_id_blocks_1024::0           26                       # Occupied blocks per task id
system.cpu.dcache.tags.age_task_id_blocks_1024::1          113                       # Occupied blocks per task id
system.cpu.dcache.tags.age_task_id_blocks_1024::2          470                       # Occupied blocks per task id
system.cpu.dcache.tags.age_task_id_blocks_1024::3          415                       # Occupied blocks per task id
system.cpu.dcache.tags.occ_task_id_percent::1024            1                       # Percentage of cache occupancy per task id
system.cpu.dcache.tags.tag_accesses         153990212                       # Number of tag accesses
system.cpu.dcache.tags.data_accesses        153990212                       # Number of data accesses
system.cpu.dcache.tags.power_state.pwrStateResidencyTicks::UNDEFINED 794516752000                       # Cumulative time (in ticks) in various power states
system.cpu.dtb.rdAccesses                    54401504                       # TLB accesses on read requests
system.cpu.dtb.wrAccesses                    21093652                       # TLB accesses on write requests
system.cpu.dtb.rdMisses                          5333                       # TLB misses on read requests
system.cpu.dtb.wrMisses                          2475                       # TLB misses on write requests
system.cpu.dtb.walker.power_state.pwrStateResidencyTicks::UNDEFINED 794516752000                       # Cumulative time (in ticks) in various power states
system.cpu.icache.demand_hits::.cpu.inst    254337952                       # number of demand (read+write) hits
system.cpu.icache.demand_hits::total        254337952                       # number of demand (read+write) hits
system.cpu.icache.overall_hits::.cpu.inst    254337952                       # number of overall hits
system.cpu.icache.overall_hits::total       254337952                       # number of overall hits
system.cpu.icache.demand_misses::.cpu.inst        55707                       # number of demand (read+write) misses
system.cpu.icache.demand_misses::total          55707                       # number of demand (read+write) misses
system.cpu.icache.overall_misses::.cpu.inst        55707                       # number of overall misses
system.cpu.icache.overall_misses::total         55707                       # number of overall misses
system.cpu.icache.demand_miss_latency::.cpu.inst   4350420000                       # number of demand (read+write) miss cycles
system.cpu.icache.demand_miss_latency::total   4350420000                       # number of demand (read+write) miss cycles
system.cpu.icache.overall_miss_latency::.cpu.inst   4350420000                       # number of overall miss cycles
system.cpu.icache.overall_miss_latency::total   4350420000                       # number of overall miss cycles
system.cpu.icache.demand_accesses::.cpu.inst    254393659                       # number of demand (read+write) accesses
system.cpu.icache.demand_accesses::total    254393659                       # number of demand (read+write) accesses
system.cpu.icache.overall_accesses::.cpu.inst    254393659                       # number of overall (read+write) accesses
system.cpu.icache.overall_accesses::total    254393659                       # number of overall (read+write) accesses
system.cpu.icache.demand_miss_rate::.cpu.inst     0.000219                       # miss rate for demand accesses
system.cpu.icache.demand_miss_rate::total     0.000219                       # miss rate for demand accesses
system.cpu.icache.overall_miss_rate::.cpu.inst     0.000219                       # miss rate for overall accesses
system.cpu.icache.overall_miss_rate::total     0.000219                       # miss rate for overall accesses
system.cpu.icache.demand_avg_miss_latency::.cpu.inst 78094.673919                       # average overall miss latency
system.cpu.icache.demand_avg_miss_latency::total 78094.673919                       # average overall miss latency
system.cpu.icache.overall_avg_miss_latency::.cpu.inst 78094.673919                       # average overall miss latency
system.cpu.icache.overall_avg_miss_latency::total 78094.673919                       # average overall miss latency
system.cpu.icache.blocked_cycles::no_mshrs            0                       # number of cycles access was blocked
system.cpu.icache.blocked_cycles::no_targets            0                       # number of cycles access was blocked
system.cpu.icache.blocked::no_mshrs                 0                       # number of cycles access was blocked
system.cpu.icache.blocked::no_targets               0                       # number of cycles access was blocked
system.cpu.icache.avg_blocked_cycles::no_mshrs          nan                       # average number of cycles each access was blocked
system.cpu.icache.avg_blocked_cycles::no_targets          nan                       # average number of cycles each access was blocked
system.cpu.icache.demand_mshr_misses::.cpu.inst        55707                       # number of demand (read+write) MSHR misses
system.cpu.icache.demand_mshr_misses::total        55707                       # number of demand (read+write) MSHR misses
system.cpu.icache.overall_mshr_misses::.cpu.inst        55707                       # number of overall MSHR misses
system.cpu.icache.overall_mshr_misses::total        55707                       # number of overall MSHR misses
system.cpu.icache.demand_mshr_miss_latency::.cpu.inst   4239006000                       # number of demand (read+write) MSHR miss cycles
system.cpu.icache.demand_mshr_miss_latency::total   4239006000                       # number of demand (read+write) MSHR miss cycles
system.cpu.icache.overall_mshr_miss_latency::.cpu.inst   4239006000                       # number of overall MSHR miss cycles
system.cpu.icache.overall_mshr_miss_latency::total   4239006000                       # number of overall MSHR miss cycles
system.cpu.icache.demand_mshr_miss_rate::.cpu.inst     0.000219                       # mshr miss rate for demand accesses
system.cpu.icache.demand_mshr_miss_rate::total     0.000219                       # mshr miss rate for demand accesses
system.cpu.icache.overall_mshr_miss_rate::.cpu.inst     0.000219                       # mshr miss rate for overall accesses
system.cpu.icache.overall_mshr_miss_rate::total     0.000219                       # mshr miss rate for overall accesses
system.cpu.icache.demand_avg_mshr_miss_latency::.cpu.inst 76094.673919                       # average overall mshr miss latency
system.cpu.icache.demand_avg_mshr_miss_latency::total 76094.673919                       # average overall mshr miss latency
system.cpu.icache.overall_avg_mshr_miss_latency::.cpu.inst 76094.673919                       # average overall mshr miss latency
system.cpu.icache.overall_avg_mshr_miss_latency::total 76094.673919                       # average overall mshr miss latency
system.cpu.icache.replacements                  55451                       # number of replacements
system.cpu.icache.ReadReq_hits::.cpu.inst    254337952                       # number of ReadReq hits
system.cpu.icache.ReadReq_hits::total       254337952                       # number of ReadReq hits
system.cpu.icache.ReadReq_misses::.cpu.inst        55707                       # number of ReadReq misses
system.cpu.icache.ReadReq_misses::total         55707                       # number of ReadReq misses
system.cpu.icache.ReadReq_miss_latency::.cpu.inst   4350420000                       # number of ReadReq miss cycles
system.cpu.icache.ReadReq_miss_latency::total   4350420000                       # number of ReadReq miss cycles
system.cpu.icache.ReadReq_accesses::.cpu.inst    254393659                       # number of ReadReq accesses(hits+misses)
system.cpu.icache.ReadReq_accesses::total    254393659                       # number of ReadReq accesses(hits+misses)
system.cpu.icache.ReadReq_miss_rate::.cpu.inst     0.000219                       # miss rate for ReadReq accesses
system.cpu.icache.ReadReq_miss_rate::total     0.000219                       # miss rate for ReadReq accesses
system.cpu.icache.ReadReq_avg_miss_latency::.cpu.inst 78094.673919                       # average ReadReq miss latency
system.cpu.icache.ReadReq_avg_miss_latency::total 78094.673919                       # average ReadReq miss latency
system.cpu.icache.ReadReq_mshr_misses::.cpu.inst        55707                       # number of ReadReq MSHR misses
system.cpu.icache.ReadReq_mshr_misses::total        55707                       # number of ReadReq MSHR misses
system.cpu.icache.ReadReq_mshr_miss_latency::.cpu.inst   4239006000                       # number of ReadReq MSHR miss cycles
system.cpu.icache.ReadReq_mshr_miss_latency::total   4239006000                       # number of ReadReq MSHR miss cycles
system.cpu.icache.ReadReq_mshr_miss_rate::.cpu.inst     0.000219                       # mshr miss rate for ReadReq accesses
system.cpu.icache.ReadReq_mshr_miss_rate::total     0.000219                       # mshr miss rate for ReadReq accesses
system.cpu.icache.ReadReq_avg_mshr_miss_latency::.cpu.inst 76094.673919                       # average ReadReq mshr miss latency
system.cpu.icache.ReadReq_avg_mshr_miss_latency::total 76094.673919                       # average ReadReq mshr miss latency
system.cpu.icache.power_state.pwrStateResidencyTicks::UNDEFINED 794516752000                       # Cumulative time (in ticks) in various power states
system.cpu.icache.tags.tagsinuse           255.983914                       # Cycle average of tags in use
system.cpu.icache.tags.total_refs           254393659                       # Total number of references to valid blocks.
system.cpu.icache.tags.sampled_refs             55707                       # Sample count of references to valid blocks.
system.cpu.icache.tags.avg_refs           4566.637209                       # Average number of references to valid blocks.
system.cpu.icache.tags.warmup_cycle            107000                       # Cycle when the warmup percentage was hit.
system.cpu.icache.tags.occ_blocks::.cpu.inst   255.983914                       # Average occupied blocks per requestor
system.cpu.icache.tags.occ_percent::.cpu.inst     0.999937                       # Average percentage of cache occupancy
system.cpu.icache.tags.occ_percent::total     0.999937                       # Average percentage of cache occupancy
system.cpu.icache.tags.occ_task_id_blocks::1024          256                       # Occupied blocks per task id
system.cpu.icache.tags.age_task_id_blocks_1024::0           32                       # Occupied blocks per task id
system.cpu.icache.tags.age_task_id_blocks_1024::1          107                       # Occupied blocks per task id
system.cpu.icache.tags.age_task_id_blocks_1024::2          108                       # Occupied blocks per task id
system.cpu.icache.tags.age_task_id_blocks_1024::3            9                       # Occupied blocks per task id
system.cpu.icache.tags.occ_task_id_percent::1024            1                       # Percentage of cache occupancy per task id
system.cpu.icache.tags.tag_accesses         508843025                       # Number of tag accesses
system.cpu.icache.tags.data_accesses        508843025                       # Number of data accesses
system.cpu.icache.tags.power_state.pwrStateResidencyTicks::UNDEFINED 794516752000                       # Cumulative time (in ticks) in various power states
system.cpu.interrupts.clk_domain.clock          16000                       # Clock period in ticks
system.cpu.itb.rdAccesses                           0                       # TLB accesses on read requests
system.cpu.itb.wrAccesses                   254393659                       # TLB accesses on write requests
system.cpu.itb.rdMisses                             0                       # TLB misses on read requests
system.cpu.itb.wrMisses                           138                       # TLB misses on write requests
system.cpu.itb.walker.power_state.pwrStateResidencyTicks::UNDEFINED 794516752000                       # Cumulative time (in ticks) in various power states
system.cpu.power_state.pwrStateResidencyTicks::ON 794516752000                       # Cumulative time (in ticks) in various power states
system.cpu.thread_0.numInsts                        0                       # Number of Instructions committed
system.cpu.thread_0.numOps                          0                       # Number of Ops committed
system.cpu.thread_0.numMemRefs                      0                       # Number of Memory References
system.l2bus.trans_dist::ReadResp             1939993                       # Transaction distribution
system.l2bus.trans_dist::WritebackDirty       2771042                       # Transaction distribution
system.l2bus.trans_dist::CleanEvict           1291590                       # Transaction distribution
system.l2bus.trans_dist::ReadExReq            1115664                       # Transaction distribution
system.l2bus.trans_dist::ReadExResp           1115664                       # Transaction distribution
system.l2bus.trans_dist::ReadSharedReq        1939993                       # Transaction distribution
system.l2bus.pkt_count_system.cpu.icache.mem_side_port::system.l2cache.cpu_side_port       166865                       # Packet count per connected requestor and responder (bytes)
system.l2bus.pkt_count_system.cpu.dcache.mem_side_port::system.l2cache.cpu_side_port      8998826                       # Packet count per connected requestor and responder (bytes)
system.l2bus.pkt_count::total                 9165691                       # Packet count per connected requestor and responder (bytes)
system.l2bus.pkt_size_system.cpu.icache.mem_side_port::system.l2cache.cpu_side_port      3565248                       # Cumulative packet size per connected requestor and responder (bytes)
system.l2bus.pkt_size_system.cpu.dcache.mem_side_port::system.l2cache.cpu_side_port    346799232                       # Cumulative packet size per connected requestor and responder (bytes)
system.l2bus.pkt_size::total                350364480                       # Cumulative packet size per connected requestor and responder (bytes)
system.l2bus.snoops                           1008255                       # Total snoops (count)
system.l2bus.snoopTraffic                    22544256                       # Total snoop traffic (bytes)
system.l2bus.snoop_fanout::samples            4063912                       # Request fanout histogram
system.l2bus.snoop_fanout::mean              0.092254                       # Request fanout histogram
system.l2bus.snoop_fanout::stdev             0.289384                       # Request fanout histogram
system.l2bus.snoop_fanout::underflows               0      0.00%      0.00% # Request fanout histogram
system.l2bus.snoop_fanout::0                  3689000     90.77%     90.77% # Request fanout histogram
system.l2bus.snoop_fanout::1                   374912      9.23%    100.00% # Request fanout histogram
system.l2bus.snoop_fanout::2                        0      0.00%    100.00% # Request fanout histogram
system.l2bus.snoop_fanout::overflows                0      0.00%    100.00% # Request fanout histogram
system.l2bus.snoop_fanout::min_value                0                       # Request fanout histogram
system.l2bus.snoop_fanout::max_value                1                       # Request fanout histogram
system.l2bus.snoop_fanout::total              4063912                       # Request fanout histogram
system.l2bus.power_state.pwrStateResidencyTicks::UNDEFINED 794516752000                       # Cumulative time (in ticks) in various power states
system.l2bus.reqLayer0.occupancy          10947610000                       # Layer occupancy (ticks)
system.l2bus.reqLayer0.utilization                1.4                       # Layer utilization (%)
system.l2bus.respLayer0.occupancy           167121000                       # Layer occupancy (ticks)
system.l2bus.respLayer0.utilization               0.0                       # Layer utilization (%)
system.l2bus.respLayer1.occupancy          8999850000                       # Layer occupancy (ticks)
system.l2bus.respLayer1.utilization               1.1                       # Layer utilization (%)
system.l2cache.demand_hits::.cpu.inst           17134                       # number of demand (read+write) hits
system.l2cache.demand_hits::.cpu.data         2243945                       # number of demand (read+write) hits
system.l2cache.demand_hits::total             2261079                       # number of demand (read+write) hits
system.l2cache.overall_hits::.cpu.inst          17134                       # number of overall hits
system.l2cache.overall_hits::.cpu.data        2243945                       # number of overall hits
system.l2cache.overall_hits::total            2261079                       # number of overall hits
system.l2cache.demand_misses::.cpu.inst         38573                       # number of demand (read+write) misses
system.l2cache.demand_misses::.cpu.data        756005                       # number of demand (read+write) misses
system.l2cache.demand_misses::total            794578                       # number of demand (read+write) misses
system.l2cache.overall_misses::.cpu.inst        38573                       # number of overall misses
system.l2cache.overall_misses::.cpu.data       756005                       # number of overall misses
system.l2cache.overall_misses::total           794578                       # number of overall misses
system.l2cache.demand_miss_latency::.cpu.inst   3711901000                       # number of demand (read+write) miss cycles
system.l2cache.demand_miss_latency::.cpu.data  74360398000                       # number of demand (read+write) miss cycles
system.l2cache.demand_miss_latency::total  78072299000                       # number of demand (read+write) miss cycles
system.l2cache.overall_miss_latency::.cpu.inst   3711901000                       # number of overall miss cycles
system.l2cache.overall_miss_latency::.cpu.data  74360398000                       # number of overall miss cycles
system.l2cache.overall_miss_latency::total  78072299000                       # number of overall miss cycles
system.l2cache.demand_accesses::.cpu.inst        55707                       # number of demand (read+write) accesses
system.l2cache.demand_accesses::.cpu.data      2999950                       # number of demand (read+write) accesses
system.l2cache.demand_accesses::total         3055657                       # number of demand (read+write) accesses
system.l2cache.overall_accesses::.cpu.inst        55707                       # number of overall (read+write) accesses
system.l2cache.overall_accesses::.cpu.data      2999950                       # number of overall (read+write) accesses
system.l2cache.overall_accesses::total        3055657                       # number of overall (read+write) accesses
system.l2cache.demand_miss_rate::.cpu.inst     0.692426                       # miss rate for demand accesses
system.l2cache.demand_miss_rate::.cpu.data     0.252006                       # miss rate for demand accesses
system.l2cache.demand_miss_rate::total       0.260035                       # miss rate for demand accesses
system.l2cache.overall_miss_rate::.cpu.inst     0.692426                       # miss rate for overall accesses
system.l2cache.overall_miss_rate::.cpu.data     0.252006                       # miss rate for overall accesses
system.l2cache.overall_miss_rate::total      0.260035                       # miss rate for overall accesses
system.l2cache.demand_avg_miss_latency::.cpu.inst 96230.549866                       # average overall miss latency
system.l2cache.demand_avg_miss_latency::.cpu.data 98359.664288                       # average overall miss latency
system.l2cache.demand_avg_miss_latency::total 98256.305863                       # average overall miss latency
system.l2cache.overall_avg_miss_latency::.cpu.inst 96230.549866                       # average overall miss latency
system.l2cache.overall_avg_miss_latency::.cpu.data 98359.664288                       # average overall miss latency
system.l2cache.overall_avg_miss_latency::total 98256.305863                       # average overall miss latency
system.l2cache.blocked_cycles::no_mshrs             0                       # number of cycles access was blocked
system.l2cache.blocked_cycles::no_targets            0                       # number of cycles access was blocked
system.l2cache.blocked::no_mshrs                    0                       # number of cycles access was blocked
system.l2cache.blocked::no_targets                  0                       # number of cycles access was blocked
system.l2cache.avg_blocked_cycles::no_mshrs          nan                       # average number of cycles each access was blocked
system.l2cache.avg_blocked_cycles::no_targets          nan                       # average number of cycles each access was blocked
system.l2cache.writebacks::.writebacks         352254                       # number of writebacks
system.l2cache.writebacks::total               352254                       # number of writebacks
system.l2cache.demand_mshr_misses::.cpu.inst        38573                       # number of demand (read+write) MSHR misses
system.l2cache.demand_mshr_misses::.cpu.data       756005                       # number of demand (read+write) MSHR misses
system.l2cache.demand_mshr_misses::total       794578                       # number of demand (read+write) MSHR misses
system.l2cache.overall_mshr_misses::.cpu.inst        38573                       # number of overall MSHR misses
system.l2cache.overall_mshr_misses::.cpu.data       756005                       # number of overall MSHR misses
system.l2cache.overall_mshr_misses::total       794578                       # number of overall MSHR misses
system.l2cache.demand_mshr_miss_latency::.cpu.inst   2940441000                       # number of demand (read+write) MSHR miss cycles
system.l2cache.demand_mshr_miss_latency::.cpu.data  59240298000                       # number of demand (read+write) MSHR miss cycles
system.l2cache.demand_mshr_miss_latency::total  62180739000                       # number of demand (read+write) MSHR miss cycles
system.l2cache.overall_mshr_miss_latency::.cpu.inst   2940441000                       # number of overall MSHR miss cycles
system.l2cache.overall_mshr_miss_latency::.cpu.data  59240298000                       # number of overall MSHR miss cycles
system.l2cache.overall_mshr_miss_latency::total  62180739000                       # number of overall MSHR miss cycles
system.l2cache.demand_mshr_miss_rate::.cpu.inst     0.692426                       # mshr miss rate for demand accesses
system.l2cache.demand_mshr_miss_rate::.cpu.data     0.252006                       # mshr miss rate for demand accesses
system.l2cache.demand_mshr_miss_rate::total     0.260035                       # mshr miss rate for demand accesses
system.l2cache.overall_mshr_miss_rate::.cpu.inst     0.692426                       # mshr miss rate for overall accesses
system.l2cache.overall_mshr_miss_rate::.cpu.data     0.252006                       # mshr miss rate for overall accesses
system.l2cache.overall_mshr_miss_rate::total     0.260035                       # mshr miss rate for overall accesses
system.l2cache.demand_avg_mshr_miss_latency::.cpu.inst 76230.549866                       # average overall mshr miss latency
system.l2cache.demand_avg_mshr_miss_latency::.cpu.data 78359.664288                       # average overall mshr miss latency
system.l2cache.demand_avg_mshr_miss_latency::total 78256.305863                       # average overall mshr miss latency
system.l2cache.overall_avg_mshr_miss_latency::.cpu.inst 76230.549866                       # average overall mshr miss latency
system.l2cache.overall_avg_mshr_miss_latency::.cpu.data 78359.664288                       # average overall mshr miss latency
system.l2cache.overall_avg_mshr_miss_latency::total 78256.305863                       # average overall mshr miss latency
system.l2cache.replacements                   1000253                       # number of replacements
system.l2cache.WritebackDirty_hits::.writebacks      2416677                       # number of WritebackDirty hits
system.l2cache.WritebackDirty_hits::total      2416677                       # number of WritebackDirty hits
system.l2cache.WritebackDirty_misses::.writebacks         2111                       # number of WritebackDirty misses
system.l2cache.WritebackDirty_misses::total         2111                       # number of WritebackDirty misses
system.l2cache.WritebackDirty_accesses::.writebacks      2418788                       # number of WritebackDirty accesses(hits+misses)
system.l2cache.WritebackDirty_accesses::total      2418788                       # number of WritebackDirty accesses(hits+misses)
system.l2cache.WritebackDirty_miss_rate::.writebacks     0.000873                       # miss rate for WritebackDirty accesses
system.l2cache.WritebackDirty_miss_rate::total     0.000873                       # miss rate for WritebackDirty accesses
system.l2cache.WritebackDirty_mshr_misses::.writebacks         2111                       # number of WritebackDirty MSHR misses
system.l2cache.WritebackDirty_mshr_misses::total         2111                       # number of WritebackDirty MSHR misses
system.l2cache.WritebackDirty_mshr_miss_rate::.writebacks     0.000873                       # mshr miss rate for WritebackDirty accesses
system.l2cache.WritebackDirty_mshr_miss_rate::total     0.000873                       # mshr miss rate for WritebackDirty accesses
system.l2cache.CleanEvict_mshr_misses::.writebacks       156754                       # number of CleanEvict MSHR misses
system.l2cache.CleanEvict_mshr_misses::total       156754                       # number of CleanEvict MSHR misses
system.l2cache.CleanEvict_mshr_miss_rate::.writebacks          inf                       # mshr miss rate for CleanEvict accesses
system.l2cache.CleanEvict_mshr_miss_rate::total          inf                       # mshr miss rate for CleanEvict accesses
system.l2cache.ReadExReq_hits::.cpu.data       931454                       # number of ReadExReq hits
system.l2cache.ReadExReq_hits::total           931454                       # number of ReadExReq hits
system.l2cache.ReadExReq_misses::.cpu.data       184210                       # number of ReadExReq misses
system.l2cache.ReadExReq_misses::total         184210                       # number of ReadExReq misses
system.l2cache.ReadExReq_miss_latency::.cpu.data  17884094000                       # number of ReadExReq miss cycles
system.l2cache.ReadExReq_miss_latency::total  17884094000                       # number of ReadExReq miss cycles
system.l2cache.ReadExReq_accesses::.cpu.data      1115664                       # number of ReadExReq accesses(hits+misses)
system.l2cache.ReadExReq_accesses::total      1115664                       # number of ReadExReq accesses(hits+misses)
system.l2cache.ReadExReq_miss_rate::.cpu.data     0.165112                       # miss rate for ReadExReq accesses
system.l2cache.ReadExReq_miss_rate::total     0.165112                       # miss rate for ReadExReq accesses
system.l2cache.ReadExReq_avg_miss_latency::.cpu.data 97085.359101                       # average ReadExReq miss latency
system.l2cache.ReadExReq_avg_miss_latency::total 97085.359101                       # average ReadExReq miss latency
system.l2cache.ReadExReq_mshr_misses::.cpu.data       184210                       # number of ReadExReq MSHR misses
system.l2cache.ReadExReq_mshr_misses::total       184210                       # number of ReadExReq MSHR misses
system.l2cache.ReadExReq_mshr_miss_latency::.cpu.data  14199894000                       # number of ReadExReq MSHR miss cycles
system.l2cache.ReadExReq_mshr_miss_latency::total  14199894000                       # number of ReadExReq MSHR miss cycles
system.l2cache.ReadExReq_mshr_miss_rate::.cpu.data     0.165112                       # mshr miss rate for ReadExReq accesses
system.l2cache.ReadExReq_mshr_miss_rate::total     0.165112                       # mshr miss rate for ReadExReq accesses
system.l2cache.ReadExReq_avg_mshr_miss_latency::.cpu.data 77085.359101                       # average ReadExReq mshr miss latency
system.l2cache.ReadExReq_avg_mshr_miss_latency::total 77085.359101                       # average ReadExReq mshr miss latency
system.l2cache.ReadSharedReq_hits::.cpu.inst        17134                       # number of ReadSharedReq hits
system.l2cache.ReadSharedReq_hits::.cpu.data      1312491                       # number of ReadSharedReq hits
system.l2cache.ReadSharedReq_hits::total      1329625                       # number of ReadSharedReq hits
system.l2cache.ReadSharedReq_misses::.cpu.inst        38573                       # number of ReadSharedReq misses
system.l2cache.ReadSharedReq_misses::.cpu.data       571795                       # number of ReadSharedReq misses
system.l2cache.ReadSharedReq_misses::total       610368                       # number of ReadSharedReq misses
system.l2cache.ReadSharedReq_miss_latency::.cpu.inst   3711901000                       # number of ReadSharedReq miss cycles
system.l2cache.ReadSharedReq_miss_latency::.cpu.data  56476304000                       # number of ReadSharedReq miss cycles
system.l2cache.ReadSharedReq_miss_latency::total  60188205000                       # number of ReadSharedReq miss cycles
system.l2cache.ReadSharedReq_accesses::.cpu.inst        55707                       # number of ReadSharedReq accesses(hits+misses)
system.l2cache.ReadSharedReq_accesses::.cpu.data      1884286                       # number of ReadSharedReq accesses(hits+misses)
system.l2cache.ReadSharedReq_accesses::total      1939993                       # number of ReadSharedReq accesses(hits+misses)
system.l2cache.ReadSharedReq_miss_rate::.cpu.inst     0.692426                       # miss rate for ReadSharedReq accesses
system.l2cache.ReadSharedReq_miss_rate::.cpu.data     0.303454                       # miss rate for ReadSharedReq accesses
system.l2cache.ReadSharedReq_miss_rate::total     0.314624                       # miss rate for ReadSharedReq accesses
system.l2cache.ReadSharedReq_avg_miss_latency::.cpu.inst 96230.549866                       # average ReadSharedReq miss latency
system.l2cache.ReadSharedReq_avg_miss_latency::.cpu.data 98770.195612                       # average ReadSharedReq miss latency
system.l2cache.ReadSharedReq_avg_miss_latency::total 98609.699394                       # average ReadSharedReq miss latency
system.l2cache.ReadSharedReq_mshr_misses::.cpu.inst        38573                       # number of ReadSharedReq MSHR misses
system.l2cache.ReadSharedReq_mshr_misses::.cpu.data       571795                       # number of ReadSharedReq MSHR misses
system.l2cache.ReadSharedReq_mshr_misses::total       610368                       # number of ReadSharedReq MSHR misses
system.l2cache.ReadSharedReq_mshr_miss_latency::.cpu.inst   2940441000                       # number of ReadSharedReq MSHR miss cycles
system.l2cache.ReadSharedReq_mshr_miss_latency::.cpu.data  45040404000                       # number of ReadSharedReq MSHR miss cycles
system.l2cache.ReadSharedReq_mshr_miss_latency::total  47980845000                       # number of ReadSharedReq MSHR miss cycles
system.l2cache.ReadSharedReq_mshr_miss_rate::.cpu.inst     0.692426                       # mshr miss rate for ReadSharedReq accesses
system.l2cache.ReadSharedReq_mshr_miss_rate::.cpu.data     0.303454                       # mshr miss rate for ReadSharedReq accesses
system.l2cache.ReadSharedReq_mshr_miss_rate::total     0.314624                       # mshr miss rate for ReadSharedReq accesses
system.l2cache.ReadSharedReq_avg_mshr_miss_latency::.cpu.inst 76230.549866                       # average ReadSharedReq mshr miss latency
system.l2cache.ReadSharedReq_avg_mshr_miss_latency::.cpu.data 78770.195612                       # average ReadSharedReq mshr miss latency
system.l2cache.ReadSharedReq_avg_mshr_miss_latency::total 78609.699394                       # average ReadSharedReq mshr miss latency
system.l2cache.power_state.pwrStateResidencyTicks::UNDEFINED 794516752000                       # Cumulative time (in ticks) in various power states
system.l2cache.replacement_policy.totalBypasses        10113                       # Total number of cache bypasses
system.l2cache.replacement_policy.effectiveBypasses         2648                       # Bypasses that correctly skipped non-reused blocks
system.l2cache.replacement_policy.ineffectiveBypasses         1771                       # Bypasses that incorrectly skipped requested blocks
system.l2cache.replacement_policy.virtualEffectiveBypasses        20796                       # Virtual bypasses correctly predicting non-reused blocks
system.l2cache.replacement_policy.virtualIneffectiveBypasses        18817                       # Virtual bypasses incorrectly predicting requested blocks
system.l2cache.tags.tagsinuse             2046.824718                       # Cycle average of tags in use
system.l2cache.tags.total_refs                5943167                       # Total number of references to valid blocks.
system.l2cache.tags.sampled_refs              1002301                       # Sample count of references to valid blocks.
system.l2cache.tags.avg_refs                 5.929523                       # Average number of references to valid blocks.
system.l2cache.tags.warmup_cycle             14962000                       # Cycle when the warmup percentage was hit.
system.l2cache.tags.occ_blocks::.writebacks   368.901103                       # Average occupied blocks per requestor
system.l2cache.tags.occ_blocks::.cpu.inst    56.266490                       # Average occupied blocks per requestor
system.l2cache.tags.occ_blocks::.cpu.data  1621.657126                       # Average occupied blocks per requestor
system.l2cache.tags.occ_percent::.writebacks     0.180127                       # Average percentage of cache occupancy
system.l2cache.tags.occ_percent::.cpu.inst     0.027474                       # Average percentage of cache occupancy
system.l2cache.tags.occ_percent::.cpu.data     0.791825                       # Average percentage of cache occupancy
system.l2cache.tags.occ_percent::total       0.999426                       # Average percentage of cache occupancy
system.l2cache.tags.occ_task_id_blocks::1024         2048                       # Occupied blocks per task id
system.l2cache.tags.age_task_id_blocks_1024::0           63                       # Occupied blocks per task id
system.l2cache.tags.age_task_id_blocks_1024::1          150                       # Occupied blocks per task id
system.l2cache.tags.age_task_id_blocks_1024::2          715                       # Occupied blocks per task id
system.l2cache.tags.age_task_id_blocks_1024::3         1120                       # Occupied blocks per task id
system.l2cache.tags.occ_task_id_percent::1024            1                       # Percentage of cache occupancy per task id
system.l2cache.tags.tag_accesses             49882573                       # Number of tag accesses
system.l2cache.tags.data_accesses            49882573                       # Number of data accesses
system.l2cache.tags.power_state.pwrStateResidencyTicks::UNDEFINED 794516752000                       # Cumulative time (in ticks) in various power states
system.mem_ctrl.avgPriority_.writebacks::samples    354280.00                       # Average QoS priority value for accepted requests
system.mem_ctrl.avgPriority_.cpu.inst::samples     38573.00                       # Average QoS priority value for accepted requests
system.mem_ctrl.avgPriority_.cpu.data::samples    717009.00                       # Average QoS priority value for accepted requests
system.mem_ctrl.priorityMinLatency       0.000000018750                       # per QoS priority minimum request to response latency (s)
system.mem_ctrl.priorityMaxLatency       0.008312598500                       # per QoS priority maximum request to response latency (s)
system.mem_ctrl.numReadWriteTurnArounds         20170                       # Number of turnarounds from READ to WRITE
system.mem_ctrl.numWriteReadTurnArounds         20170                       # Number of turnarounds from WRITE to READ
system.mem_ctrl.numStayReadState              2060482                       # Number of times bus staying in READ state
system.mem_ctrl.numStayWriteState              334464                       # Number of times bus staying in WRITE state
system.mem_ctrl.readReqs                       794578                       # Number of read requests accepted
system.mem_ctrl.writeReqs                      354365                       # Number of write requests accepted
system.mem_ctrl.readBursts                     794578                       # Number of controller read bursts, including those serviced by the write queue
system.mem_ctrl.writeBursts                    354365                       # Number of controller write bursts, including those merged in the write queue
system.mem_ctrl.servicedByWrQ                   38996                       # Number of controller read bursts serviced by the write queue
system.mem_ctrl.mergedWrBursts                     85                       # Number of controller write bursts merged with an existing one
system.mem_ctrl.neitherReadNorWriteReqs             0                       # Number of requests that are neither read nor write
system.mem_ctrl.avgRdQLen                        1.00                       # Average read queue length when enqueuing
system.mem_ctrl.avgWrQLen                       24.53                       # Average write queue length when enqueuing
system.mem_ctrl.numRdRetry                          0                       # Number of times read queue was full causing retry
system.mem_ctrl.numWrRetry                          0                       # Number of times write queue was full causing retry
system.mem_ctrl.readPktSize::0                      0                       # Read request sizes (log2)
system.mem_ctrl.readPktSize::1                      0                       # Read request sizes (log2)
system.mem_ctrl.readPktSize::2                      0                       # Read request sizes (log2)
system.mem_ctrl.readPktSize::3                      0                       # Read request sizes (log2)
system.mem_ctrl.readPktSize::4                      0                       # Read request sizes (log2)
system.mem_ctrl.readPktSize::5                      0                       # Read request sizes (log2)
system.mem_ctrl.readPktSize::6                 794578                       # Read request sizes (log2)
system.mem_ctrl.writePktSize::0                     0                       # Write request sizes (log2)
system.mem_ctrl.writePktSize::1                     0                       # Write request sizes (log2)
system.mem_ctrl.writePktSize::2                     0                       # Write request sizes (log2)
system.mem_ctrl.writePktSize::3                     0                       # Write request sizes (log2)
system.mem_ctrl.writePktSize::4                     0                       # Write request sizes (log2)
system.mem_ctrl.writePktSize::5                     0                       # Write request sizes (log2)
system.mem_ctrl.writePktSize::6                354365                       # Write request sizes (log2)
system.mem_ctrl.rdQLenPdf::0                   755580                       # What read queue length does an incoming req see
system.mem_ctrl.rdQLenPdf::1                        2                       # What read queue length does an incoming req see
system.mem_ctrl.rdQLenPdf::2                        0                       # What read queue length does an incoming req see
system.mem_ctrl.rdQLenPdf::3                        0                       # What read queue length does an incoming req see
system.mem_ctrl.rdQLenPdf::4                        0                       # What read queue length does an incoming req see
system.mem_ctrl.rdQLenPdf::5                        0                       # What read queue length does an incoming req see
system.mem_ctrl.rdQLenPdf::6                        0                       # What read queue length does an incoming req see
system.mem_ctrl.rdQLenPdf::7                        0                       # What read queue length does an incoming req see
system.mem_ctrl.rdQLenPdf::8                        0                       # What read queue length does an incoming req see
system.mem_ctrl.rdQLenPdf::9                        0                       # What read queue length does an incoming req see
system.mem_ctrl.rdQLenPdf::10                       0                       # What read queue length does an incoming req see
system.mem_ctrl.rdQLenPdf::11                       0                       # What read queue length does an incoming req see
system.mem_ctrl.rdQLenPdf::12                       0                       # What read queue length does an incoming req see
system.mem_ctrl.rdQLenPdf::13                       0                       # What read queue length does an incoming req see
system.mem_ctrl.rdQLenPdf::14                       0                       # What read queue length does an incoming req see
system.mem_ctrl.rdQLenPdf::15                       0                       # What read queue length does an incoming req see
system.mem_ctrl.rdQLenPdf::16                       0                       # What read queue length does an incoming req see
system.mem_ctrl.rdQLenPdf::17                       0                       # What read queue length does an incoming req see
system.mem_ctrl.rdQLenPdf::18                       0                       # What read queue length does an incoming req see
system.mem_ctrl.rdQLenPdf::19                       0                       # What read queue length does an incoming req see
system.mem_ctrl.rdQLenPdf::20                       0                       # What read queue length does an incoming req see
system.mem_ctrl.rdQLenPdf::21                       0                       # What read queue length does an incoming req see
system.mem_ctrl.rdQLenPdf::22                       0                       # What read queue length does an incoming req see
system.mem_ctrl.rdQLenPdf::23                       0                       # What read queue length does an incoming req see
system.mem_ctrl.rdQLenPdf::24                       0                       # What read queue length does an incoming req see
system.mem_ctrl.rdQLenPdf::25                       0                       # What read queue length does an incoming req see
system.mem_ctrl.rdQLenPdf::26                       0                       # What read queue length does an incoming req see
system.mem_ctrl.rdQLenPdf::27                       0                       # What read queue length does an incoming req see
system.mem_ctrl.rdQLenPdf::28                       0                       # What read queue length does an incoming req see
system.mem_ctrl.rdQLenPdf::29                       0                       # What read queue length does an incoming req see
system.mem_ctrl.rdQLenPdf::30                       0                       # What read queue length does an incoming req see
system.mem_ctrl.rdQLenPdf::31                       0                       # What read queue length does an incoming req see
system.mem_ctrl.wrQLenPdf::0                        1                       # What write queue length does an incoming req see
system.mem_ctrl.wrQLenPdf::1                        1                       # What write queue length does an incoming req see
system.mem_ctrl.wrQLenPdf::2                        1                       # What write queue length does an incoming req see
system.mem_ctrl.wrQLenPdf::3                        1                       # What write queue length does an incoming req see
system.mem_ctrl.wrQLenPdf::4                        1                       # What write queue length does an incoming req see
system.mem_ctrl.wrQLenPdf::5                        1                       # What write queue length does an incoming req see
system.mem_ctrl.wrQLenPdf::6                        1                       # What write queue length does an incoming req see
system.mem_ctrl.wrQLenPdf::7                        1                       # What write queue length does an incoming req see
system.mem_ctrl.wrQLenPdf::8                        1                       # What write queue length does an incoming req see
system.mem_ctrl.wrQLenPdf::9                        1                       # What write queue length does an incoming req see
system.mem_ctrl.wrQLenPdf::10                       1                       # What write queue length does an incoming req see
system.mem_ctrl.wrQLenPdf::11                       1                       # What write queue length does an incoming req see
system.mem_ctrl.wrQLenPdf::12                       1                       # What write queue length does an incoming req see
system.mem_ctrl.wrQLenPdf::13                       1                       # What write queue length does an incoming req see
system.mem_ctrl.wrQLenPdf::14                       1                       # What write queue length does an incoming req see
system.mem_ctrl.wrQLenPdf::15                   14791                       # What write queue length does an incoming req see
system.mem_ctrl.wrQLenPdf::16                   15680                       # What write queue length does an incoming req see
system.mem_ctrl.wrQLenPdf::17                   19887                       # What write queue length does an incoming req see
system.mem_ctrl.wrQLenPdf::18                   20434                       # What write queue length does an incoming req see
system.mem_ctrl.wrQLenPdf::19                   20420                       # What write queue length does an incoming req see
system.mem_ctrl.wrQLenPdf::20                   20298                       # What write queue length does an incoming req see
system.mem_ctrl.wrQLenPdf::21                   20720                       # What write queue length does an incoming req see
system.mem_ctrl.wrQLenPdf::22                   20228                       # What write queue length does an incoming req see
system.mem_ctrl.wrQLenPdf::23                   20203                       # What write queue length does an incoming req see
system.mem_ctrl.wrQLenPdf::24                   20187                       # What write queue length does an incoming req see
system.mem_ctrl.wrQLenPdf::25                   20189                       # What write queue length does an incoming req see
system.mem_ctrl.wrQLenPdf::26                   20171                       # What write queue length does an incoming req see
system.mem_ctrl.wrQLenPdf::27                   20174                       # What write queue length does an incoming req see
system.mem_ctrl.wrQLenPdf::28                   20173                       # What write queue length does an incoming req see
system.mem_ctrl.wrQLenPdf::29                   20173                       # What write queue length does an incoming req see
system.mem_ctrl.wrQLenPdf::30                   20170                       # What write queue length does an incoming req see
system.mem_ctrl.wrQLenPdf::31                   20170                       # What write queue length does an incoming req see
system.mem_ctrl.wrQLenPdf::32                   20170                       # What write queue length does an incoming req see
system.mem_ctrl.wrQLenPdf::33                      24                       # What write queue length does an incoming req see
system.mem_ctrl.wrQLenPdf::34                       2                       # What write queue length does an incoming req see
system.mem_ctrl.wrQLenPdf::35                       1                       # What write queue length does an incoming req see
system.mem_ctrl.wrQLenPdf::36                       0                       # What write queue length does an incoming req see
system.mem_ctrl.wrQLenPdf::37                       0                       # What write queue length does an incoming req see
system.mem_ctrl.wrQLenPdf::38                       0                       # What write queue length does an incoming req see
system.mem_ctrl.wrQLenPdf::39                       0                       # What write queue length does an incoming req see
system.mem_ctrl.wrQLenPdf::40                       0                       # What write queue length does an incoming req see
system.mem_ctrl.wrQLenPdf::41                       0                       # What write queue length does an incoming req see
system.mem_ctrl.wrQLenPdf::42                       0                       # What write queue length does an incoming req see
system.mem_ctrl.wrQLenPdf::43                       0                       # What write queue length does an incoming req see
system.mem_ctrl.wrQLenPdf::44                       0                       # What write queue length does an incoming req see
system.mem_ctrl.wrQLenPdf::45                       0                       # What write queue length does an incoming req see
system.mem_ctrl.wrQLenPdf::46                       0                       # What write queue length does an incoming req see
system.mem_ctrl.wrQLenPdf::47                       0                       # What write queue length does an incoming req see
system.mem_ctrl.wrQLenPdf::48                       0                       # What write queue length does an incoming req see
system.mem_ctrl.wrQLenPdf::49                       0                       # What write queue length does an incoming req see
system.mem_ctrl.wrQLenPdf::50                       0                       # What write queue length does an incoming req see
system.mem_ctrl.wrQLenPdf::51                       0                       # What write queue length does an incoming req see
system.mem_ctrl.wrQLenPdf::52                       0                       # What write queue length does an incoming req see
system.mem_ctrl.wrQLenPdf::53                       0                       # What write queue length does an incoming req see
system.mem_ctrl.wrQLenPdf::54                       0                       # What write queue length does an incoming req see
system.mem_ctrl.wrQLenPdf::55                       0                       # What write queue length does an incoming req see
system.mem_ctrl.wrQLenPdf::56                       0                       # What write queue length does an incoming req see
system.mem_ctrl.wrQLenPdf::57                       0                       # What write queue length does an incoming req see
system.mem_ctrl.wrQLenPdf::58                       0                       # What write queue length does an incoming req see
system.mem_ctrl.wrQLenPdf::59                       0                       # What write queue length does an incoming req see
system.mem_ctrl.wrQLenPdf::60                       0                       # What write queue length does an incoming req see
system.mem_ctrl.wrQLenPdf::61                       0                       # What write queue length does an incoming req see
system.mem_ctrl.wrQLenPdf::62                       0                       # What write queue length does an incoming req see
system.mem_ctrl.wrQLenPdf::63                       0                       # What write queue length does an incoming req see
system.mem_ctrl.rdPerTurnAround::samples        20170                       # Reads before turning the bus around for writes
system.mem_ctrl.rdPerTurnAround::mean       37.457610                       # Reads before turning the bus around for writes
system.mem_ctrl.rdPerTurnAround::stdev      39.357909                       # Reads before turning the bus around for writes
system.mem_ctrl.rdPerTurnAround::0-127          19952     98.92%     98.92% # Reads before turning the bus around for writes
system.mem_ctrl.rdPerTurnAround::128-255          119      0.59%     99.51% # Reads before turning the bus around for writes
system.mem_ctrl.rdPerTurnAround::256-383           38      0.19%     99.70% # Reads before turning the bus around for writes
system.mem_ctrl.rdPerTurnAround::384-511           48      0.24%     99.94% # Reads before turning the bus around for writes
system.mem_ctrl.rdPerTurnAround::512-639           12      0.06%    100.00% # Reads before turning the bus around for writes
system.mem_ctrl.rdPerTurnAround::2816-2943            1      0.00%    100.00% # Reads before turning the bus around for writes
system.mem_ctrl.rdPerTurnAround::total          20170                       # Reads before turning the bus around for writes
system.mem_ctrl.wrPerTurnAround::samples        20170                       # Writes before turning the bus around for reads
system.mem_ctrl.wrPerTurnAround::mean       17.563213                       # Writes before turning the bus around for reads
system.mem_ctrl.wrPerTurnAround::gmean      17.539499                       # Writes before turning the bus around for reads
system.mem_ctrl.wrPerTurnAround::stdev       0.897987                       # Writes before turning the bus around for reads
system.mem_ctrl.wrPerTurnAround::16              4554     22.58%     22.58% # Writes before turning the bus around for reads
system.mem_ctrl.wrPerTurnAround::17               771      3.82%     26.40% # Writes before turning the bus around for reads
system.mem_ctrl.wrPerTurnAround::18             13803     68.43%     94.83% # Writes before turning the bus around for reads
system.mem_ctrl.wrPerTurnAround::19              1016      5.04%     99.87% # Writes before turning the bus around for reads
system.mem_ctrl.wrPerTurnAround::20                25      0.12%    100.00% # Writes before turning the bus around for reads
system.mem_ctrl.wrPerTurnAround::21                 1      0.00%    100.00% # Writes before turning the bus around for reads
system.mem_ctrl.wrPerTurnAround::total          20170                       # Writes before turning the bus around for reads
system.mem_ctrl.bytesReadWrQ                  2495744                       # Total number of bytes read from write queue
system.mem_ctrl.bytesReadSys                 50852992                       # Total read bytes from the system interface side
system.mem_ctrl.bytesWrittenSys              22679360                       # Total written bytes from the system interface side
system.mem_ctrl.avgRdBWSys                      64.00                       # Average system read bandwidth in MiByte/s
system.mem_ctrl.avgWrBWSys                      28.54                       # Average system write bandwidth in MiByte/s
system.mem_ctrl.totGap                   794516653000                       # Total gap between requests
system.mem_ctrl.avgGap                      691519.64                       # Average gap between requests
[...]
system.mem_ctrl.requestorReadRate::.cpu.data 57756587.113470956683                       # Per-requestor bytes read from memory rate (Bytes/sec)
system.mem_ctrl.requestorWriteRate::.writebacks 28535584.609045471996                       # Per-requestor bytes write to memory rate (Bytes/sec)
system.mem_ctrl.requestorReadAccesses::.cpu.inst        38573                       # Per-requestor read serviced memory accesses
system.mem_ctrl.requestorReadAccesses::.cpu.data       756005                       # Per-requestor read serviced memory accesses
system.mem_ctrl.requestorWriteAccesses::.writebacks       354365                       # Per-requestor write serviced memory accesses
system.mem_ctrl.requestorReadTotalLat::.cpu.inst    962313750                       # Per-requestor read total memory access latency
system.mem_ctrl.requestorReadTotalLat::.cpu.data  20825976500                       # Per-requestor read total memory access latency
system.mem_ctrl.requestorWriteTotalLat::.writebacks 18705439432250                       # Per-requestor write total memory access latency
system.mem_ctrl.requestorReadAvgLat::.cpu.inst     24947.86                       # Per-requestor read average memory access latency
system.mem_ctrl.requestorReadAvgLat::.cpu.data     27547.41                       # Per-requestor read average memory access latency
system.mem_ctrl.requestorWriteAvgLat::.writebacks  52785798.35                       # Per-requestor write average memory access latency
system.mem_ctrl.dram.bytes_read::.cpu.inst      2468672                       # Number of bytes read from this memory
system.mem_ctrl.dram.bytes_read::.cpu.data     48384320                       # Number of bytes read from this memory
system.mem_ctrl.dram.bytes_read::total       50852992                       # Number of bytes read from this memory
system.mem_ctrl.dram.bytes_inst_read::.cpu.inst      2468672                       # Number of instructions bytes read from this memory
system.mem_ctrl.dram.bytes_inst_read::total      2468672                       # Number of instructions bytes read from this memory
system.mem_ctrl.dram.bytes_written::.writebacks     22679360                       # Number of bytes written to this memory
system.mem_ctrl.dram.bytes_written::total     22679360                       # Number of bytes written to this memory
system.mem_ctrl.dram.num_reads::.cpu.inst        38573                       # Number of read requests responded to by this memory
system.mem_ctrl.dram.num_reads::.cpu.data       756005                       # Number of read requests responded to by this memory
system.mem_ctrl.dram.num_reads::total          794578                       # Number of read requests responded to by this memory
system.mem_ctrl.dram.num_writes::.writebacks       354365                       # Number of write requests responded to by this memory
system.mem_ctrl.dram.num_writes::total         354365                       # Number of write requests responded to by this memory
system.mem_ctrl.dram.bw_read::.cpu.inst       3107136                       # Total read bandwidth from this memory (bytes/s)
system.mem_ctrl.dram.bw_read::.cpu.data      60897797                       # Total read bandwidth from this memory (bytes/s)
system.mem_ctrl.dram.bw_read::total          64004934                       # Total read bandwidth from this memory (bytes/s)
system.mem_ctrl.dram.bw_inst_read::.cpu.inst      3107136                       # Instruction read bandwidth from this memory (bytes/s)
system.mem_ctrl.dram.bw_inst_read::total      3107136                       # Instruction read bandwidth from this memory (bytes/s)
system.mem_ctrl.dram.bw_write::.writebacks     28544848                       # Write bandwidth from this memory (bytes/s)
system.mem_ctrl.dram.bw_write::total         28544848                       # Write bandwidth from this memory (bytes/s)
system.mem_ctrl.dram.bw_total::.writebacks     28544848                       # Total bandwidth to/from this memory (bytes/s)
system.mem_ctrl.dram.bw_total::.cpu.inst      3107136                       # Total bandwidth to/from this memory (bytes/s)
system.mem_ctrl.dram.bw_total::.cpu.data     60897797                       # Total bandwidth to/from this memory (bytes/s)
system.mem_ctrl.dram.bw_total::total         92549782                       # Total bandwidth to/from this memory (bytes/s)
system.mem_ctrl.dram.readBursts                755582                       # Number of DRAM read bursts
system.mem_ctrl.dram.writeBursts               354250                       # Number of DRAM write bursts
system.mem_ctrl.dram.perBankRdBursts::0         33716                       # Per bank write bursts
system.mem_ctrl.dram.perBankRdBursts::1         47600                       # Per bank write bursts
system.mem_ctrl.dram.perBankRdBursts::2         40415                       # Per bank write bursts
system.mem_ctrl.dram.perBankRdBursts::3         42053                       # Per bank write bursts
system.mem_ctrl.dram.perBankRdBursts::4         27703                       # Per bank write bursts
system.mem_ctrl.dram.perBankRdBursts::5         27352                       # Per bank write bursts
system.mem_ctrl.dram.perBankRdBursts::6         33935                       # Per bank write bursts
system.mem_ctrl.dram.perBankRdBursts::7         48400                       # Per bank write bursts
system.mem_ctrl.dram.perBankRdBursts::8         31220                       # Per bank write bursts
system.mem_ctrl.dram.perBankRdBursts::9         71785                       # Per bank write bursts
system.mem_ctrl.dram.perBankRdBursts::10        51445                       # Per bank write bursts
system.mem_ctrl.dram.perBankRdBursts::11        78930                       # Per bank write bursts
system.mem_ctrl.dram.perBankRdBursts::12        64685                       # Per bank write bursts
system.mem_ctrl.dram.perBankRdBursts::13        64104                       # Per bank write bursts
system.mem_ctrl.dram.perBankRdBursts::14        42884                       # Per bank write bursts
system.mem_ctrl.dram.perBankRdBursts::15        49355                       # Per bank write bursts
system.mem_ctrl.dram.perBankWrBursts::0          7527                       # Per bank write bursts
system.mem_ctrl.dram.perBankWrBursts::1         21316                       # Per bank write bursts
system.mem_ctrl.dram.perBankWrBursts::2         11243                       # Per bank write bursts
system.mem_ctrl.dram.perBankWrBursts::3         16886                       # Per bank write bursts
system.mem_ctrl.dram.perBankWrBursts::4          3891                       # Per bank write bursts
system.mem_ctrl.dram.perBankWrBursts::5         14489                       # Per bank write bursts
system.mem_ctrl.dram.perBankWrBursts::6         20491                       # Per bank write bursts
system.mem_ctrl.dram.perBankWrBursts::7         37121                       # Per bank write bursts
system.mem_ctrl.dram.perBankWrBursts::8         18763                       # Per bank write bursts
system.mem_ctrl.dram.perBankWrBursts::9         33234                       # Per bank write bursts
system.mem_ctrl.dram.perBankWrBursts::10        28418                       # Per bank write bursts
system.mem_ctrl.dram.perBankWrBursts::11        38110                       # Per bank write bursts
system.mem_ctrl.dram.perBankWrBursts::12        28554                       # Per bank write bursts
system.mem_ctrl.dram.perBankWrBursts::13        37699                       # Per bank write bursts
system.mem_ctrl.dram.perBankWrBursts::14        20974                       # Per bank write bursts
system.mem_ctrl.dram.perBankWrBursts::15        15534                       # Per bank write bursts
system.mem_ctrl.dram.totQLat               7621127750                       # Total ticks spent queuing
system.mem_ctrl.dram.totBusLat             3777910000                       # Total ticks spent in databus transfers
system.mem_ctrl.dram.totMemAccLat         21788290250                       # Total ticks spent from burst creation until serviced by the DRAM
system.mem_ctrl.dram.avgQLat                 10086.43                       # Average queueing delay per DRAM burst
system.mem_ctrl.dram.avgBusLat                5000.00                       # Average bus latency per DRAM burst
system.mem_ctrl.dram.avgMemAccLat            28836.43                       # Average memory access latency per DRAM burst
system.mem_ctrl.dram.readRowHits               503036                       # Number of row buffer hits during reads
system.mem_ctrl.dram.writeRowHits              287113                       # Number of row buffer hits during writes
system.mem_ctrl.dram.readRowHitRate             66.58                       # Row buffer hit rate for reads
system.mem_ctrl.dram.writeRowHitRate            81.05                       # Row buffer hit rate for writes
system.mem_ctrl.dram.bytesPerActivate::samples       319683                       # Bytes accessed per row activation
system.mem_ctrl.dram.bytesPerActivate::mean   222.186504                       # Bytes accessed per row activation
system.mem_ctrl.dram.bytesPerActivate::gmean   148.729521                       # Bytes accessed per row activation
system.mem_ctrl.dram.bytesPerActivate::stdev   226.897460                       # Bytes accessed per row activation
system.mem_ctrl.dram.bytesPerActivate::0-127       129246     40.43%     40.43% # Bytes accessed per row activation
system.mem_ctrl.dram.bytesPerActivate::128-255        90488     28.31%     68.73% # Bytes accessed per row activation
system.mem_ctrl.dram.bytesPerActivate::256-383        35453     11.09%     79.83% # Bytes accessed per row activation
system.mem_ctrl.dram.bytesPerActivate::384-511        25786      8.07%     87.89% # Bytes accessed per row activation
system.mem_ctrl.dram.bytesPerActivate::512-639        13734      4.30%     92.19% # Bytes accessed per row activation
system.mem_ctrl.dram.bytesPerActivate::640-767         8227      2.57%     94.76% # Bytes accessed per row activation
system.mem_ctrl.dram.bytesPerActivate::768-895         4823      1.51%     96.27% # Bytes accessed per row activation
system.mem_ctrl.dram.bytesPerActivate::896-1023         5286      1.65%     97.92% # Bytes accessed per row activation
system.mem_ctrl.dram.bytesPerActivate::1024-1151         6640      2.08%    100.00% # Bytes accessed per row activation
system.mem_ctrl.dram.bytesPerActivate::total       319683                       # Bytes accessed per row activation
system.mem_ctrl.dram.bytesRead               48357248                       # Total number of bytes read from DRAM
system.mem_ctrl.dram.bytesWritten            22672000                       # Total number of bytes written to DRAM
system.mem_ctrl.dram.avgRdBW                60.863724                       # Average DRAM read bandwidth in MiBytes/s
system.mem_ctrl.dram.avgWrBW                28.535585                       # Average DRAM write bandwidth in MiBytes/s
system.mem_ctrl.dram.peakBW                  12800.00                       # Theoretical peak bandwidth in MiByte/s
system.mem_ctrl.dram.busUtil                     0.70                       # Data bus utilization in percentage
system.mem_ctrl.dram.busUtilRead                 0.48                       # Data bus utilization in percentage for reads
system.mem_ctrl.dram.busUtilWrite                0.22                       # Data bus utilization in percentage for writes
system.mem_ctrl.dram.pageHitRate                71.20                       # Row buffer hit rate, read and write combined
system.mem_ctrl.dram.power_state.pwrStateResidencyTicks::UNDEFINED 794516752000                       # Cumulative time (in ticks) in various power states
system.mem_ctrl.dram.rank0.actEnergy        726694920                       # Energy for activate commands per rank (pJ)
system.mem_ctrl.dram.rank0.preEnergy        386247510                       # Energy for precharge commands per rank (pJ)
system.mem_ctrl.dram.rank0.readEnergy      2150382360                       # Energy for read commands per rank (pJ)
system.mem_ctrl.dram.rank0.writeEnergy      694072080                       # Energy for write commands per rank (pJ)
system.mem_ctrl.dram.rank0.refreshEnergy 62718480240.000008                       # Energy for refresh commands per rank (pJ)
system.mem_ctrl.dram.rank0.actBackEnergy 145218909120                       # Energy for active background per rank (pJ)
system.mem_ctrl.dram.rank0.preBackEnergy 182804918880                       # Energy for precharge background per rank (pJ)
system.mem_ctrl.dram.rank0.actPowerDownEnergy            0                       # Energy for active power-down per rank (pJ)
system.mem_ctrl.dram.rank0.prePowerDownEnergy            0                       # Energy for precharge power-down per rank (pJ)
system.mem_ctrl.dram.rank0.selfRefreshEnergy            0                       # Energy for self refresh per rank (pJ)
system.mem_ctrl.dram.rank0.totalEnergy   394699705110                       # Total energy per rank (pJ)
system.mem_ctrl.dram.rank0.averagePower    496.779588                       # Core power per rank (mW)
system.mem_ctrl.dram.rank0.totalIdleTime            0                       # Total Idle time Per DRAM Rank
system.mem_ctrl.dram.rank0.pwrStateTime::IDLE 473863652500                       # Time in different power states
system.mem_ctrl.dram.rank0.pwrStateTime::REF  26530402000                       # Time in different power states
system.mem_ctrl.dram.rank0.pwrStateTime::SREF            0                       # Time in different power states
system.mem_ctrl.dram.rank0.pwrStateTime::PRE_PDN            0                       # Time in different power states
system.mem_ctrl.dram.rank0.pwrStateTime::ACT 294122697500                       # Time in different power states
system.mem_ctrl.dram.rank0.pwrStateTime::ACT_PDN            0                       # Time in different power states
system.mem_ctrl.dram.rank1.actEnergy       1555841700                       # Energy for activate commands per rank (pJ)
system.mem_ctrl.dram.rank1.preEnergy        826949475                       # Energy for precharge commands per rank (pJ)
system.mem_ctrl.dram.rank1.readEnergy      3244473120                       # Energy for read commands per rank (pJ)
system.mem_ctrl.dram.rank1.writeEnergy     1155112920                       # Energy for write commands per rank (pJ)
system.mem_ctrl.dram.rank1.refreshEnergy 62718480240.000008                       # Energy for refresh commands per rank (pJ)
system.mem_ctrl.dram.rank1.actBackEnergy 200025666540                       # Energy for active background per rank (pJ)
system.mem_ctrl.dram.rank1.preBackEnergy 136651860000                       # Energy for precharge background per rank (pJ)
system.mem_ctrl.dram.rank1.actPowerDownEnergy            0                       # Energy for active power-down per rank (pJ)
system.mem_ctrl.dram.rank1.prePowerDownEnergy            0                       # Energy for precharge power-down per rank (pJ)
system.mem_ctrl.dram.rank1.selfRefreshEnergy            0                       # Energy for self refresh per rank (pJ)
system.mem_ctrl.dram.rank1.totalEnergy   406178383995                       # Total energy per rank (pJ)
system.mem_ctrl.dram.rank1.averagePower    511.226960                       # Core power per rank (mW)
system.mem_ctrl.dram.rank1.totalIdleTime            0                       # Total Idle time Per DRAM Rank
system.mem_ctrl.dram.rank1.pwrStateTime::IDLE 353302106000                       # Time in different power states
system.mem_ctrl.dram.rank1.pwrStateTime::REF  26530402000                       # Time in different power states
system.mem_ctrl.dram.rank1.pwrStateTime::SREF            0                       # Time in different power states
system.mem_ctrl.dram.rank1.pwrStateTime::PRE_PDN            0                       # Time in different power states
system.mem_ctrl.dram.rank1.pwrStateTime::ACT 414684244000                       # Time in different power states
system.mem_ctrl.dram.rank1.pwrStateTime::ACT_PDN            0                       # Time in different power states
system.mem_ctrl.power_state.pwrStateResidencyTicks::UNDEFINED 794516752000                       # Cumulative time (in ticks) in various power states
system.membus.trans_dist::ReadResp             610368                       # Transaction distribution
system.membus.trans_dist::WritebackDirty       354365                       # Transaction distribution
system.membus.trans_dist::CleanEvict           437843                       # Transaction distribution
system.membus.trans_dist::ReadExReq            184210                       # Transaction distribution
system.membus.trans_dist::ReadExResp           184210                       # Transaction distribution
system.membus.trans_dist::ReadSharedReq        610368                       # Transaction distribution
system.membus.pkt_count_system.l2cache.mem_side_port::system.mem_ctrl.port      2381364                       # Packet count per connected requestor and responder (bytes)
system.membus.pkt_count_system.l2cache.mem_side_port::total      2381364                       # Packet count per connected requestor and responder (bytes)
system.membus.pkt_count::total                2381364                       # Packet count per connected requestor and responder (bytes)
system.membus.pkt_size_system.l2cache.mem_side_port::system.mem_ctrl.port     73532352                       # Cumulative packet size per connected requestor and responder (bytes)
system.membus.pkt_size_system.l2cache.mem_side_port::total     73532352                       # Cumulative packet size per connected requestor and responder (bytes)
system.membus.pkt_size::total                73532352                       # Cumulative packet size per connected requestor and responder (bytes)
system.membus.snoops                                0                       # Total snoops (count)
system.membus.snoopTraffic                          0                       # Total snoop traffic (bytes)
system.membus.snoop_fanout::samples            794578                       # Request fanout histogram
system.membus.snoop_fanout::mean                    0                       # Request fanout histogram
system.membus.snoop_fanout::stdev                   0                       # Request fanout histogram
system.membus.snoop_fanout::underflows              0      0.00%      0.00% # Request fanout histogram
system.membus.snoop_fanout::0                  794578    100.00%    100.00% # Request fanout histogram
system.membus.snoop_fanout::1                       0      0.00%    100.00% # Request fanout histogram
system.membus.snoop_fanout::overflows               0      0.00%    100.00% # Request fanout histogram
system.membus.snoop_fanout::min_value               0                       # Request fanout histogram
system.membus.snoop_fanout::max_value               0                       # Request fanout histogram
system.membus.snoop_fanout::total              794578                       # Request fanout histogram
system.membus.power_state.pwrStateResidencyTicks::UNDEFINED 794516752000                       # Cumulative time (in ticks) in various power states
system.membus.reqLayer2.occupancy          3004246000                       # Layer occupancy (ticks)
system.membus.reqLayer2.utilization               0.4                       # Layer utilization (%)
system.membus.respLayer0.occupancy         4230078250                       # Layer occupancy (ticks)
system.membus.respLayer0.utilization              0.5                       # Layer utilization (%)

---------- End Simulation Statistics   ----------
