
---------- Begin Simulation Statistics ----------
final_tick                               1703793794000                       # Number of ticks from beginning of simulation (restored from checkpoints and never reset)
host_inst_rate                                 412540                       # Simulator instruction rate (inst/s)
host_mem_usage                                 666180                       # Number of bytes of host memory used
host_op_rate                                   757062                       # Simulator op (including micro ops) rate (op/s)
host_seconds                                   720.37                       # Real time elapsed on the host
host_tick_rate                             2365165341                       # Simulator tick rate (ticks/s)
sim_freq                                 1000000000000                       # Frequency of simulated ticks
sim_insts                                   297180963                       # Number of instructions simulated
sim_ops                                     545364496                       # Number of ops (including micro ops) simulated
sim_seconds                                  1.703794                       # Number of seconds simulated
sim_ticks                                1703793794000                       # Number of ticks simulated
system.cpu.Branches                          49473258                       # Number of branches fetched
system.cpu.committedInsts                   297180963                       # Number of instructions committed
system.cpu.committedOps                     545364496                       # Number of ops (including micro ops) committed
system.cpu.idle_fraction                     0.000000                       # Percentage of idle cycles
system.cpu.not_idle_fraction                 1.000000                       # Percentage of non-idle cycles
system.cpu.numCycles                       1703793794                       # number of cpu cycles simulated
system.cpu.numWorkItemsCompleted                    0                       # number of work items this cpu completed
system.cpu.numWorkItemsStarted                      0                       # number of work items this cpu started
system.cpu.num_busy_cycles               1703793793.999000                       # Number of busy cycles
system.cpu.num_cc_register_reads            252086524                       # number of times the CC registers were read
system.cpu.num_cc_register_writes           180867019                       # number of times the CC registers were written
system.cpu.num_conditional_control_insts     49270085                       # number of instructions that are conditional controls
system.cpu.num_fp_alu_accesses              184508630                       # Number of float alu accesses
system.cpu.num_fp_insts                     184508630                       # number of float instructions
system.cpu.num_fp_register_reads            225216959                       # number of times the floating registers were read
system.cpu.num_fp_register_writes           180499649                       # number of times the floating registers were written
system.cpu.num_func_calls                       81592                       # number of times a function call or return occured
system.cpu.num_idle_cycles                   0.001000                       # Number of idle cycles
system.cpu.num_int_alu_accesses             435906577                       # Number of integer alu accesses
system.cpu.num_int_insts                    435906577                       # number of integer instructions
system.cpu.num_int_register_reads           778692897                       # number of times the integer registers were read
system.cpu.num_int_register_writes          309382632                       # number of times the integer registers were written
system.cpu.num_load_insts                   111390464                       # Number of load instructions
system.cpu.num_mem_refs                     116747128                       # number of memory refs
system.cpu.num_store_insts                    5356664                       # Number of store instructions
system.cpu.num_vec_alu_accesses                     0                       # Number of vector alu accesses
system.cpu.num_vec_insts                            0                       # number of vector instructions
system.cpu.num_vec_register_reads                   0                       # number of times the vector registers were read
system.cpu.num_vec_register_writes                  0                       # number of times the vector registers were written
system.cpu.op_class::No_OpClass                710623      0.13%      0.13% # Class of executed instruction
system.cpu.op_class::IntAlu                 322694235     59.17%     59.30% # Class of executed instruction
system.cpu.op_class::IntMult                    30102      0.01%     59.31% # Class of executed instruction
system.cpu.op_class::IntDiv                       616      0.00%     59.31% # Class of executed instruction
system.cpu.op_class::FloatAdd                33737834      6.19%     65.49% # Class of executed instruction
system.cpu.op_class::FloatCmp                       0      0.00%     65.49% # Class of executed instruction
system.cpu.op_class::FloatCvt                       0      0.00%     65.49% # Class of executed instruction
system.cpu.op_class::FloatMult                      0      0.00%     65.49% # Class of executed instruction
system.cpu.op_class::FloatMultAcc                   0      0.00%     65.49% # Class of executed instruction
system.cpu.op_class::FloatDiv                       0      0.00%     65.49% # Class of executed instruction
system.cpu.op_class::FloatMisc                      0      0.00%     65.49% # Class of executed instruction
system.cpu.op_class::FloatSqrt                      0      0.00%     65.49% # Class of executed instruction
system.cpu.op_class::SimdAdd                    76762      0.01%     65.51% # Class of executed instruction
system.cpu.op_class::SimdAddAcc                     0      0.00%     65.51% # Class of executed instruction
system.cpu.op_class::SimdAlu                    60252      0.01%     65.52% # Class of executed instruction
system.cpu.op_class::SimdCmp                       24      0.00%     65.52% # Class of executed instruction
system.cpu.op_class::SimdCvt                     1170      0.00%     65.52% # Class of executed instruction
system.cpu.op_class::SimdMisc                  125019      0.02%     65.54% # Class of executed instruction
system.cpu.op_class::SimdMult                       0      0.00%     65.54% # Class of executed instruction
system.cpu.op_class::SimdMultAcc                    0      0.00%     65.54% # Class of executed instruction
system.cpu.op_class::SimdShift                      0      0.00%     65.54% # Class of executed instruction
system.cpu.op_class::SimdShiftAcc                   0      0.00%     65.54% # Class of executed instruction
system.cpu.op_class::SimdDiv                        0      0.00%     65.54% # Class of executed instruction
system.cpu.op_class::SimdSqrt                       0      0.00%     65.54% # Class of executed instruction
system.cpu.op_class::SimdFloatAdd            35512541      6.51%     72.05% # Class of executed instruction
system.cpu.op_class::SimdFloatAlu                   0      0.00%     72.05% # Class of executed instruction
system.cpu.op_class::SimdFloatCmp                   0      0.00%     72.05% # Class of executed instruction
system.cpu.op_class::SimdFloatCvt              101637      0.02%     72.07% # Class of executed instruction
system.cpu.op_class::SimdFloatDiv                 835      0.00%     72.07% # Class of executed instruction
system.cpu.op_class::SimdFloatMisc                  0      0.00%     72.07% # Class of executed instruction
system.cpu.op_class::SimdFloatMult           35565797      6.52%     78.59% # Class of executed instruction
system.cpu.op_class::SimdFloatMultAcc               0      0.00%     78.59% # Class of executed instruction
system.cpu.op_class::SimdFloatSqrt                 32      0.00%     78.59% # Class of executed instruction
system.cpu.op_class::SimdReduceAdd                  0      0.00%     78.59% # Class of executed instruction
system.cpu.op_class::SimdReduceAlu                  0      0.00%     78.59% # Class of executed instruction
system.cpu.op_class::SimdReduceCmp                  0      0.00%     78.59% # Class of executed instruction
system.cpu.op_class::SimdFloatReduceAdd             0      0.00%     78.59% # Class of executed instruction
system.cpu.op_class::SimdFloatReduceCmp             0      0.00%     78.59% # Class of executed instruction
system.cpu.op_class::SimdAes                        0      0.00%     78.59% # Class of executed instruction
system.cpu.op_class::SimdAesMix                     0      0.00%     78.59% # Class of executed instruction
system.cpu.op_class::SimdSha1Hash                   0      0.00%     78.59% # Class of executed instruction
system.cpu.op_class::SimdSha1Hash2                  0      0.00%     78.59% # Class of executed instruction
system.cpu.op_class::SimdSha256Hash                 0      0.00%     78.59% # Class of executed instruction
system.cpu.op_class::SimdSha256Hash2                0      0.00%     78.59% # Class of executed instruction
system.cpu.op_class::SimdShaSigma2                  0      0.00%     78.59% # Class of executed instruction
system.cpu.op_class::SimdShaSigma3                  0      0.00%     78.59% # Class of executed instruction
system.cpu.op_class::SimdPredAlu                    0      0.00%     78.59% # Class of executed instruction
system.cpu.op_class::MemRead                 39670281      7.27%     85.87% # Class of executed instruction
system.cpu.op_class::MemWrite                 1421533      0.26%     86.13% # Class of executed instruction
system.cpu.op_class::FloatMemRead            71720183     13.15%     99.28% # Class of executed instruction
system.cpu.op_class::FloatMemWrite            3935131      0.72%    100.00% # Class of executed instruction
system.cpu.op_class::IprAccess                      0      0.00%    100.00% # Class of executed instruction
system.cpu.op_class::InstPrefetch                   0      0.00%    100.00% # Class of executed instruction
system.cpu.op_class::total                  545364607                       # Class of executed instruction
system.cpu.workload.numSyscalls                    87                       # Number of system calls
system.l2bus.snoop_filter.hit_multi_requests            0                       # Number of requests hitting in the snoop filter with multiple (>1) holders of the requested data.
system.l2bus.snoop_filter.hit_multi_snoops            0                       # Number of snoops hitting in the snoop filter with multiple (>1) holders of the requested data.
system.l2bus.snoop_filter.hit_single_requests      6626200                       # Number of requests hitting in the snoop filter with a single holder of the requested data.
system.l2bus.snoop_filter.hit_single_snoops        85449                       # Number of snoops hitting in the snoop filter with a single holder of the requested data.
system.l2bus.snoop_filter.tot_requests       13253680                       # Total number of requests made to the snoop filter.
system.l2bus.snoop_filter.tot_snoops            85449                       # Total number of snoops made to the snoop filter.
system.membus.snoop_filter.hit_multi_requests            0                       # Number of requests hitting in the snoop filter with multiple (>1) holders of the requested data.
system.membus.snoop_filter.hit_multi_snoops            0                       # Number of snoops hitting in the snoop filter with multiple (>1) holders of the requested data.
system.membus.snoop_filter.hit_single_requests      6442506                       # Number of requests hitting in the snoop filter with a single holder of the requested data.
system.membus.snoop_filter.hit_single_snoops            0                       # Number of snoops hitting in the snoop filter with a single holder of the requested data.
system.membus.snoop_filter.tot_requests      12893287                       # Total number of requests made to the snoop filter.
system.membus.snoop_filter.tot_snoops               0                       # Total number of snoops made to the snoop filter.
system.clk_domain.clock                          1000                       # Clock period in ticks
system.clk_domain.voltage_domain.voltage            1                       # Voltage in Volts
system.cpu.dcache.demand_hits::.cpu.data    110150239                       # number of demand (read+write) hits
system.cpu.dcache.demand_hits::total        110150239                       # number of demand (read+write) hits
system.cpu.dcache.overall_hits::.cpu.data    110150239                       # number of overall hits
system.cpu.dcache.overall_hits::total       110150239                       # number of overall hits
system.cpu.dcache.demand_misses::.cpu.data      6608747                       # number of demand (read+write) misses
system.cpu.dcache.demand_misses::total        6608747                       # number of demand (read+write) misses
system.cpu.dcache.overall_misses::.cpu.data      6608747                       # number of overall misses
system.cpu.dcache.overall_misses::total       6608747                       # number of overall misses
system.cpu.dcache.demand_miss_latency::.cpu.data 655806305000                       # number of demand (read+write) miss cycles
system.cpu.dcache.demand_miss_latency::total 655806305000                       # number of demand (read+write) miss cycles
system.cpu.dcache.overall_miss_latency::.cpu.data 655806305000                       # number of overall miss cycles
system.cpu.dcache.overall_miss_latency::total 655806305000                       # number of overall miss cycles
system.cpu.dcache.demand_accesses::.cpu.data    116758986                       # number of demand (read+write) accesses
system.cpu.dcache.demand_accesses::total    116758986                       # number of demand (read+write) accesses
system.cpu.dcache.overall_accesses::.cpu.data    116758986                       # number of overall (read+write) accesses
system.cpu.dcache.overall_accesses::total    116758986                       # number of overall (read+write) accesses
system.cpu.dcache.demand_miss_rate::.cpu.data     0.056602                       # miss rate for demand accesses
system.cpu.dcache.demand_miss_rate::total     0.056602                       # miss rate for demand accesses
system.cpu.dcache.overall_miss_rate::.cpu.data     0.056602                       # miss rate for overall accesses
system.cpu.dcache.overall_miss_rate::total     0.056602                       # miss rate for overall accesses
system.cpu.dcache.demand_avg_miss_latency::.cpu.data 99233.077768                       # average overall miss latency
system.cpu.dcache.demand_avg_miss_latency::total 99233.077768                       # average overall miss latency
system.cpu.dcache.overall_avg_miss_latency::.cpu.data 99233.077768                       # average overall miss latency
system.cpu.dcache.overall_avg_miss_latency::total 99233.077768                       # average overall miss latency
system.cpu.dcache.blocked_cycles::no_mshrs            0                       # number of cycles access was blocked
system.cpu.dcache.blocked_cycles::no_targets            0                       # number of cycles access was blocked
system.cpu.dcache.blocked::no_mshrs                 0                       # number of cycles access was blocked
system.cpu.dcache.blocked::no_targets               0                       # number of cycles access was blocked
system.cpu.dcache.avg_blocked_cycles::no_mshrs          nan                       # average number of cycles each access was blocked
system.cpu.dcache.avg_blocked_cycles::no_targets          nan                       # average number of cycles each access was blocked
system.cpu.dcache.writebacks::.writebacks       403712                       # number of writebacks
system.cpu.dcache.writebacks::total            403712                       # number of writebacks
system.cpu.dcache.demand_mshr_misses::.cpu.data      6608747                       # number of demand (read+write) MSHR misses
system.cpu.dcache.demand_mshr_misses::total      6608747                       # number of demand (read+write) MSHR misses
system.cpu.dcache.overall_mshr_misses::.cpu.data      6608747                       # number of overall MSHR misses
system.cpu.dcache.overall_mshr_misses::total      6608747                       # number of overall MSHR misses
system.cpu.dcache.demand_mshr_miss_latency::.cpu.data 642588811000                       # number of demand (read+write) MSHR miss cycles
system.cpu.dcache.demand_mshr_miss_latency::total 642588811000                       # number of demand (read+write) MSHR miss cycles
system.cpu.dcache.overall_mshr_miss_latency::.cpu.data 642588811000                       # number of overall MSHR miss cycles
system.cpu.dcache.overall_mshr_miss_latency::total 642588811000                       # number of overall MSHR miss cycles
system.cpu.dcache.demand_mshr_miss_rate::.cpu.data     0.056602                       # mshr miss rate for demand accesses
system.cpu.dcache.demand_mshr_miss_rate::total     0.056602                       # mshr miss rate for demand accesses
system.cpu.dcache.overall_mshr_miss_rate::.cpu.data     0.056602                       # mshr miss rate for overall accesses
system.cpu.dcache.overall_mshr_miss_rate::total     0.056602                       # mshr miss rate for overall accesses
system.cpu.dcache.demand_avg_mshr_miss_latency::.cpu.data 97233.077768                       # average overall mshr miss latency
system.cpu.dcache.demand_avg_mshr_miss_latency::total 97233.077768                       # average overall mshr miss latency
system.cpu.dcache.overall_avg_mshr_miss_latency::.cpu.data 97233.077768                       # average overall mshr miss latency
system.cpu.dcache.overall_avg_mshr_miss_latency::total 97233.077768                       # average overall mshr miss latency
system.cpu.dcache.replacements                6607723                       # number of replacements
system.cpu.dcache.ReadReq_hits::.cpu.data    104904671                       # number of ReadReq hits
system.cpu.dcache.ReadReq_hits::total       104904671                       # number of ReadReq hits
system.cpu.dcache.ReadReq_misses::.cpu.data      6490776                       # number of ReadReq misses
system.cpu.dcache.ReadReq_misses::total       6490776                       # number of ReadReq misses
system.cpu.dcache.ReadReq_miss_latency::.cpu.data 647123581000                       # number of ReadReq miss cycles
system.cpu.dcache.ReadReq_miss_latency::total 647123581000                       # number of ReadReq miss cycles
system.cpu.dcache.ReadReq_accesses::.cpu.data    111395447                       # number of ReadReq accesses(hits+misses)
system.cpu.dcache.ReadReq_accesses::total    111395447                       # number of ReadReq accesses(hits+misses)
system.cpu.dcache.ReadReq_miss_rate::.cpu.data     0.058268                       # miss rate for ReadReq accesses
system.cpu.dcache.ReadReq_miss_rate::total     0.058268                       # miss rate for ReadReq accesses
system.cpu.dcache.ReadReq_avg_miss_latency::.cpu.data 99698.954486                       # average ReadReq miss latency
system.cpu.dcache.ReadReq_avg_miss_latency::total 99698.954486                       # average ReadReq miss latency
system.cpu.dcache.ReadReq_mshr_misses::.cpu.data      6490776                       # number of ReadReq MSHR misses
system.cpu.dcache.ReadReq_mshr_misses::total      6490776                       # number of ReadReq MSHR misses
system.cpu.dcache.ReadReq_mshr_miss_latency::.cpu.data 634142029000                       # number of ReadReq MSHR miss cycles
system.cpu.dcache.ReadReq_mshr_miss_latency::total 634142029000                       # number of ReadReq MSHR miss cycles
system.cpu.dcache.ReadReq_mshr_miss_rate::.cpu.data     0.058268                       # mshr miss rate for ReadReq accesses
system.cpu.dcache.ReadReq_mshr_miss_rate::total     0.058268                       # mshr miss rate for ReadReq accesses
system.cpu.dcache.ReadReq_avg_mshr_miss_latency::.cpu.data 97698.954486                       # average ReadReq mshr miss latency
system.cpu.dcache.ReadReq_avg_mshr_miss_latency::total 97698.954486                       # average ReadReq mshr miss latency
system.cpu.dcache.WriteReq_hits::.cpu.data      5245568                       # number of WriteReq hits
system.cpu.dcache.WriteReq_hits::total        5245568                       # number of WriteReq hits
system.cpu.dcache.WriteReq_misses::.cpu.data       117971                       # number of WriteReq misses
system.cpu.dcache.WriteReq_misses::total       117971                       # number of WriteReq misses
system.cpu.dcache.WriteReq_miss_latency::.cpu.data   8682724000                       # number of WriteReq miss cycles
system.cpu.dcache.WriteReq_miss_latency::total   8682724000                       # number of WriteReq miss cycles
system.cpu.dcache.WriteReq_accesses::.cpu.data      5363539                       # number of WriteReq accesses(hits+misses)
system.cpu.dcache.WriteReq_accesses::total      5363539                       # number of WriteReq accesses(hits+misses)
system.cpu.dcache.WriteReq_miss_rate::.cpu.data     0.021995                       # miss rate for WriteReq accesses
system.cpu.dcache.WriteReq_miss_rate::total     0.021995                       # miss rate for WriteReq accesses
system.cpu.dcache.WriteReq_avg_miss_latency::.cpu.data 73600.495037                       # average WriteReq miss latency
system.cpu.dcache.WriteReq_avg_miss_latency::total 73600.495037                       # average WriteReq miss latency
system.cpu.dcache.WriteReq_mshr_misses::.cpu.data       117971                       # number of WriteReq MSHR misses
system.cpu.dcache.WriteReq_mshr_misses::total       117971                       # number of WriteReq MSHR misses
system.cpu.dcache.WriteReq_mshr_miss_latency::.cpu.data   8446782000                       # number of WriteReq MSHR miss cycles
system.cpu.dcache.WriteReq_mshr_miss_latency::total   8446782000                       # number of WriteReq MSHR miss cycles
system.cpu.dcache.WriteReq_mshr_miss_rate::.cpu.data     0.021995                       # mshr miss rate for WriteReq accesses
system.cpu.dcache.WriteReq_mshr_miss_rate::total     0.021995                       # mshr miss rate for WriteReq accesses
system.cpu.dcache.WriteReq_avg_mshr_miss_latency::.cpu.data 71600.495037                       # average WriteReq mshr miss latency
system.cpu.dcache.WriteReq_avg_mshr_miss_latency::total 71600.495037                       # average WriteReq mshr miss latency
system.cpu.dcache.power_state.pwrStateResidencyTicks::UNDEFINED 1703793794000                       # Cumulative time (in ticks) in various power states
system.cpu.dcache.tags.tagsinuse          1023.809293                       # Cycle average of tags in use
system.cpu.dcache.tags.total_refs           116758986                       # Total number of references to valid blocks.
system.cpu.dcache.tags.sampled_refs           6608747                       # Sample count of references to valid blocks.
system.cpu.dcache.tags.avg_refs             17.667341                       # Average number of references to valid blocks.
system.cpu.dcache.tags.warmup_cycle            224000                       # Cycle when the warmup percentage was hit.
system.cpu.dcache.tags.occ_blocks::.cpu.data  1023.809293                       # Average occupied blocks per requestor
system.cpu.dcache.tags.occ_percent::.cpu.data     0.999814                       # Average percentage of cache occupancy
system.cpu.dcache.tags.occ_percent::total     0.999814                       # Average percentage of cache occupancy
system.cpu.dcache.tags.occ_task_id_blocks::1024         1024                       # Occupied blocks per task id
system.cpu.dcache.tags.age_task_id_blocks_1024::0           28                       # Occupied blocks per task id
system.cpu.dcache.tags.age_task_id_blocks_1024::1          109                       # Occupied blocks per task id
system.cpu.dcache.tags.age_task_id_blocks_1024::2          807                       # Occupied blocks per task id
system.cpu.dcache.tags.age_task_id_blocks_1024::3           80                       # Occupied blocks per task id
system.cpu.dcache.tags.occ_task_id_percent::1024            1                       # Percentage of cache occupancy per task id
system.cpu.dcache.tags.tag_accesses         240126719                       # Number of tag accesses
system.cpu.dcache.tags.data_accesses        240126719                       # Number of data accesses
system.cpu.dcache.tags.power_state.pwrStateResidencyTicks::UNDEFINED 1703793794000                       # Cumulative time (in ticks) in various power states
system.cpu.dtb.rdAccesses                   111395448                       # TLB accesses on read requests
system.cpu.dtb.wrAccesses                     5363562                       # TLB accesses on write requests
system.cpu.dtb.rdMisses                        115974                       # TLB misses on read requests
system.cpu.dtb.wrMisses                          1462                       # TLB misses on write requests
system.cpu.dtb.walker.power_state.pwrStateResidencyTicks::UNDEFINED 1703793794000                       # Cumulative time (in ticks) in various power states
system.cpu.icache.demand_hits::.cpu.inst    413236042                       # number of demand (read+write) hits
system.cpu.icache.demand_hits::total        413236042                       # number of demand (read+write) hits
system.cpu.icache.overall_hits::.cpu.inst    413236042                       # number of overall hits
system.cpu.icache.overall_hits::total       413236042                       # number of overall hits
system.cpu.icache.demand_misses::.cpu.inst        18733                       # number of demand (read+write) misses
system.cpu.icache.demand_misses::total          18733                       # number of demand (read+write) misses
system.cpu.icache.overall_misses::.cpu.inst        18733                       # number of overall misses
system.cpu.icache.overall_misses::total         18733                       # number of overall misses
system.cpu.icache.demand_miss_latency::.cpu.inst   1243852000                       # number of demand (read+write) miss cycles
system.cpu.icache.demand_miss_latency::total   1243852000                       # number of demand (read+write) miss cycles
system.cpu.icache.overall_miss_latency::.cpu.inst   1243852000                       # number of overall miss cycles
system.cpu.icache.overall_miss_latency::total   1243852000                       # number of overall miss cycles
system.cpu.icache.demand_accesses::.cpu.inst    413254775                       # number of demand (read+write) accesses
system.cpu.icache.demand_accesses::total    413254775                       # number of demand (read+write) accesses
system.cpu.icache.overall_accesses::.cpu.inst    413254775                       # number of overall (read+write) accesses
system.cpu.icache.overall_accesses::total    413254775                       # number of overall (read+write) accesses
system.cpu.icache.demand_miss_rate::.cpu.inst     0.000045                       # miss rate for demand accesses
system.cpu.icache.demand_miss_rate::total     0.000045                       # miss rate for demand accesses
system.cpu.icache.overall_miss_rate::.cpu.inst     0.000045                       # miss rate for overall accesses
system.cpu.icache.overall_miss_rate::total     0.000045                       # miss rate for overall accesses
system.cpu.icache.demand_avg_miss_latency::.cpu.inst 66398.975071                       # average overall miss latency
system.cpu.icache.demand_avg_miss_latency::total 66398.975071                       # average overall miss latency
system.cpu.icache.overall_avg_miss_latency::.cpu.inst 66398.975071                       # average overall miss latency
system.cpu.icache.overall_avg_miss_latency::total 66398.975071                       # average overall miss latency
system.cpu.icache.blocked_cycles::no_mshrs            0                       # number of cycles access was blocked
system.cpu.icache.blocked_cycles::no_targets            0                       # number of cycles access was blocked
system.cpu.icache.blocked::no_mshrs                 0                       # number of cycles access was blocked
system.cpu.icache.blocked::no_targets               0                       # number of cycles access was blocked
system.cpu.icache.avg_blocked_cycles::no_mshrs          nan                       # average number of cycles each access was blocked
system.cpu.icache.avg_blocked_cycles::no_targets          nan                       # average number of cycles each access was blocked
system.cpu.icache.demand_mshr_misses::.cpu.inst        18733                       # number of demand (read+write) MSHR misses
system.cpu.icache.demand_mshr_misses::total        18733                       # number of demand (read+write) MSHR misses
system.cpu.icache.overall_mshr_misses::.cpu.inst        18733                       # number of overall MSHR misses
system.cpu.icache.overall_mshr_misses::total        18733                       # number of overall MSHR misses
system.cpu.icache.demand_mshr_miss_latency::.cpu.inst   1206386000                       # number of demand (read+write) MSHR miss cycles
system.cpu.icache.demand_mshr_miss_latency::total   1206386000                       # number of demand (read+write) MSHR miss cycles
system.cpu.icache.overall_mshr_miss_latency::.cpu.inst   1206386000                       # number of overall MSHR miss cycles
system.cpu.icache.overall_mshr_miss_latency::total   1206386000                       # number of overall MSHR miss cycles
system.cpu.icache.demand_mshr_miss_rate::.cpu.inst     0.000045                       # mshr miss rate for demand accesses
system.cpu.icache.demand_mshr_miss_rate::total     0.000045                       # mshr miss rate for demand accesses
system.cpu.icache.overall_mshr_miss_rate::.cpu.inst     0.000045                       # mshr miss rate for overall accesses
system.cpu.icache.overall_mshr_miss_rate::total     0.000045                       # mshr miss rate for overall accesses
system.cpu.icache.demand_avg_mshr_miss_latency::.cpu.inst 64398.975071                       # average overall mshr miss latency
system.cpu.icache.demand_avg_mshr_miss_latency::total 64398.975071                       # average overall mshr miss latency
system.cpu.icache.overall_avg_mshr_miss_latency::.cpu.inst 64398.975071                       # average overall mshr miss latency
system.cpu.icache.overall_avg_mshr_miss_latency::total 64398.975071                       # average overall mshr miss latency
system.cpu.icache.replacements                  18477                       # number of replacements
system.cpu.icache.ReadReq_hits::.cpu.inst    413236042                       # number of ReadReq hits
system.cpu.icache.ReadReq_hits::total       413236042                       # number of ReadReq hits
system.cpu.icache.ReadReq_misses::.cpu.inst        18733                       # number of ReadReq misses
system.cpu.icache.ReadReq_misses::total         18733                       # number of ReadReq misses
system.cpu.icache.ReadReq_miss_latency::.cpu.inst   1243852000                       # number of ReadReq miss cycles
system.cpu.icache.ReadReq_miss_latency::total   1243852000                       # number of ReadReq miss cycles
system.cpu.icache.ReadReq_accesses::.cpu.inst    413254775                       # number of ReadReq accesses(hits+misses)
system.cpu.icache.ReadReq_accesses::total    413254775                       # number of ReadReq accesses(hits+misses)
system.cpu.icache.ReadReq_miss_rate::.cpu.inst     0.000045                       # miss rate for ReadReq accesses
system.cpu.icache.ReadReq_miss_rate::total     0.000045                       # miss rate for ReadReq accesses
system.cpu.icache.ReadReq_avg_miss_latency::.cpu.inst 66398.975071                       # average ReadReq miss latency
system.cpu.icache.ReadReq_avg_miss_latency::total 66398.975071                       # average ReadReq miss latency
system.cpu.icache.ReadReq_mshr_misses::.cpu.inst        18733                       # number of ReadReq MSHR misses
system.cpu.icache.ReadReq_mshr_misses::total        18733                       # number of ReadReq MSHR misses
system.cpu.icache.ReadReq_mshr_miss_latency::.cpu.inst   1206386000                       # number of ReadReq MSHR miss cycles
system.cpu.icache.ReadReq_mshr_miss_latency::total   1206386000                       # number of ReadReq MSHR miss cycles
system.cpu.icache.ReadReq_mshr_miss_rate::.cpu.inst     0.000045                       # mshr miss rate for ReadReq accesses
system.cpu.icache.ReadReq_mshr_miss_rate::total     0.000045                       # mshr miss rate for ReadReq accesses
system.cpu.icache.ReadReq_avg_mshr_miss_latency::.cpu.inst 64398.975071                       # average ReadReq mshr miss latency
system.cpu.icache.ReadReq_avg_mshr_miss_latency::total 64398.975071                       # average ReadReq mshr miss latency
system.cpu.icache.power_state.pwrStateResidencyTicks::UNDEFINED 1703793794000                       # Cumulative time (in ticks) in various power states
system.cpu.icache.tags.tagsinuse           255.992297                       # Cycle average of tags in use
system.cpu.icache.tags.total_refs           413254775                       # Total number of references to valid blocks.
system.cpu.icache.tags.sampled_refs             18733                       # Sample count of references to valid blocks.
system.cpu.icache.tags.avg_refs          22060.255965                       # Average number of references to valid blocks.
system.cpu.icache.tags.warmup_cycle            107000                       # Cycle when the warmup percentage was hit.
system.cpu.icache.tags.occ_blocks::.cpu.inst   255.992297                       # Average occupied blocks per requestor
system.cpu.icache.tags.occ_percent::.cpu.inst     0.999970                       # Average percentage of cache occupancy
system.cpu.icache.tags.occ_percent::total     0.999970                       # Average percentage of cache occupancy
system.cpu.icache.tags.occ_task_id_blocks::1024          256                       # Occupied blocks per task id
system.cpu.icache.tags.age_task_id_blocks_1024::0           35                       # Occupied blocks per task id
system.cpu.icache.tags.age_task_id_blocks_1024::1          116                       # Occupied blocks per task id
system.cpu.icache.tags.age_task_id_blocks_1024::2           98                       # Occupied blocks per task id
system.cpu.icache.tags.age_task_id_blocks_1024::4            7                       # Occupied blocks per task id
system.cpu.icache.tags.occ_task_id_percent::1024            1                       # Percentage of cache occupancy per task id
system.cpu.icache.tags.tag_accesses         826528283                       # Number of tag accesses
system.cpu.icache.tags.data_accesses        826528283                       # Number of data accesses
system.cpu.icache.tags.power_state.pwrStateResidencyTicks::UNDEFINED 1703793794000                       # Cumulative time (in ticks) in various power states
system.cpu.interrupts.clk_domain.clock          16000                       # Clock period in ticks
system.cpu.itb.rdAccesses                           0                       # TLB accesses on read requests
system.cpu.itb.wrAccesses                   413254775                       # TLB accesses on write requests
system.cpu.itb.rdMisses                             0                       # TLB misses on read requests
system.cpu.itb.wrMisses                           110                       # TLB misses on write requests
system.cpu.itb.walker.power_state.pwrStateResidencyTicks::UNDEFINED 1703793794000                       # Cumulative time (in ticks) in various power states
system.cpu.power_state.pwrStateResidencyTicks::ON 1703793794000                       # Cumulative time (in ticks) in various power states
system.cpu.thread_0.numInsts                        0                       # Number of Instructions committed
system.cpu.thread_0.numOps                          0                       # Number of Ops committed
system.cpu.thread_0.numMemRefs                      0                       # Number of Memory References
system.l2bus.trans_dist::ReadResp             6509509                       # Transaction distribution
system.l2bus.trans_dist::WritebackDirty        698393                       # Transaction distribution
system.l2bus.trans_dist::CleanEvict          12390404                       # Transaction distribution
system.l2bus.trans_dist::ReadExReq             117971                       # Transaction distribution
system.l2bus.trans_dist::ReadExResp            117971                       # Transaction distribution
system.l2bus.trans_dist::ReadSharedReq        6509509                       # Transaction distribution
system.l2bus.pkt_count_system.cpu.icache.mem_side_port::system.l2cache.cpu_side_port        55943                       # Packet count per connected requestor and responder (bytes)
system.l2bus.pkt_count_system.cpu.dcache.mem_side_port::system.l2cache.cpu_side_port     19825217                       # Packet count per connected requestor and responder (bytes)
system.l2bus.pkt_count::total                19881160                       # Packet count per connected requestor and responder (bytes)
system.l2bus.pkt_size_system.cpu.icache.mem_side_port::system.l2cache.cpu_side_port      1198912                       # Cumulative packet size per connected requestor and responder (bytes)
system.l2bus.pkt_size_system.cpu.dcache.mem_side_port::system.l2cache.cpu_side_port    448797376                       # Cumulative packet size per connected requestor and responder (bytes)
system.l2bus.pkt_size::total                449996288                       # Cumulative packet size per connected requestor and responder (bytes)
system.l2bus.snoops                           6462597                       # Total snoops (count)
system.l2bus.snoopTraffic                    18859584                       # Total snoop traffic (bytes)
system.l2bus.snoop_fanout::samples           13090077                       # Request fanout histogram
system.l2bus.snoop_fanout::mean              0.006528                       # Request fanout histogram
system.l2bus.snoop_fanout::stdev             0.080530                       # Request fanout histogram
system.l2bus.snoop_fanout::underflows               0      0.00%      0.00% # Request fanout histogram
system.l2bus.snoop_fanout::0                 13004628     99.35%     99.35% # Request fanout histogram
system.l2bus.snoop_fanout::1                    85449      0.65%    100.00% # Request fanout histogram
system.l2bus.snoop_fanout::2                        0      0.00%    100.00% # Request fanout histogram
system.l2bus.snoop_fanout::overflows                0      0.00%    100.00% # Request fanout histogram
system.l2bus.snoop_fanout::min_value                0                       # Request fanout histogram
system.l2bus.snoop_fanout::max_value                1                       # Request fanout histogram
system.l2bus.snoop_fanout::total             13090077                       # Request fanout histogram
system.l2bus.power_state.pwrStateResidencyTicks::UNDEFINED 1703793794000                       # Cumulative time (in ticks) in various power states
system.l2bus.reqLayer0.occupancy          14061104000                       # Layer occupancy (ticks)
system.l2bus.reqLayer0.utilization                0.8                       # Layer utilization (%)
system.l2bus.respLayer0.occupancy            56199000                       # Layer occupancy (ticks)
system.l2bus.respLayer0.utilization               0.0                       # Layer utilization (%)
system.l2bus.respLayer1.occupancy         19826241000                       # Layer occupancy (ticks)
system.l2bus.respLayer1.utilization               1.2                       # Layer utilization (%)
system.l2cache.demand_hits::.cpu.inst            8962                       # number of demand (read+write) hits
system.l2cache.demand_hits::.cpu.data          167737                       # number of demand (read+write) hits
system.l2cache.demand_hits::total              176699                       # number of demand (read+write) hits
system.l2cache.overall_hits::.cpu.inst           8962                       # number of overall hits
system.l2cache.overall_hits::.cpu.data         167737                       # number of overall hits
system.l2cache.overall_hits::total             176699                       # number of overall hits
system.l2cache.demand_misses::.cpu.inst          9771                       # number of demand (read+write) misses
system.l2cache.demand_misses::.cpu.data       6441010                       # number of demand (read+write) misses
system.l2cache.demand_misses::total           6450781                       # number of demand (read+write) misses
system.l2cache.overall_misses::.cpu.inst         9771                       # number of overall misses
system.l2cache.overall_misses::.cpu.data      6441010                       # number of overall misses
system.l2cache.overall_misses::total          6450781                       # number of overall misses
system.l2cache.demand_miss_latency::.cpu.inst    961939000                       # number of demand (read+write) miss cycles
system.l2cache.demand_miss_latency::.cpu.data 619239579000                       # number of demand (read+write) miss cycles
system.l2cache.demand_miss_latency::total 620201518000                       # number of demand (read+write) miss cycles
system.l2cache.overall_miss_latency::.cpu.inst    961939000                       # number of overall miss cycles
system.l2cache.overall_miss_latency::.cpu.data 619239579000                       # number of overall miss cycles
system.l2cache.overall_miss_latency::total 620201518000                       # number of overall miss cycles
system.l2cache.demand_accesses::.cpu.inst        18733                       # number of demand (read+write) accesses
system.l2cache.demand_accesses::.cpu.data      6608747                       # number of demand (read+write) accesses
system.l2cache.demand_accesses::total         6627480                       # number of demand (read+write) accesses
system.l2cache.overall_accesses::.cpu.inst        18733                       # number of overall (read+write) accesses
system.l2cache.overall_accesses::.cpu.data      6608747                       # number of overall (read+write) accesses
system.l2cache.overall_accesses::total        6627480                       # number of overall (read+write) accesses
system.l2cache.demand_miss_rate::.cpu.inst     0.521593                       # miss rate for demand accesses
system.l2cache.demand_miss_rate::.cpu.data     0.974619                       # miss rate for demand accesses
system.l2cache.demand_miss_rate::total       0.973338                       # miss rate for demand accesses
system.l2cache.overall_miss_rate::.cpu.inst     0.521593                       # miss rate for overall accesses
system.l2cache.overall_miss_rate::.cpu.data     0.974619                       # miss rate for overall accesses
system.l2cache.overall_miss_rate::total      0.973338                       # miss rate for overall accesses
system.l2cache.demand_avg_miss_latency::.cpu.inst 98448.367618                       # average overall miss latency
system.l2cache.demand_avg_miss_latency::.cpu.data 96140.136252                       # average overall miss latency
system.l2cache.demand_avg_miss_latency::total 96143.632531                       # average overall miss latency
system.l2cache.overall_avg_miss_latency::.cpu.inst 98448.367618                       # average overall miss latency
system.l2cache.overall_avg_miss_latency::.cpu.data 96140.136252                       # average overall miss latency
system.l2cache.overall_avg_miss_latency::total 96143.632531                       # average overall miss latency
system.l2cache.blocked_cycles::no_mshrs             0                       # number of cycles access was blocked
system.l2cache.blocked_cycles::no_targets            0                       # number of cycles access was blocked
system.l2cache.blocked::no_mshrs                    0                       # number of cycles access was blocked
system.l2cache.blocked::no_targets                  0                       # number of cycles access was blocked
system.l2cache.avg_blocked_cycles::no_mshrs          nan                       # average number of cycles each access was blocked
system.l2cache.avg_blocked_cycles::no_targets          nan                       # average number of cycles each access was blocked
system.l2cache.writebacks::.writebacks         294681                       # number of writebacks
system.l2cache.writebacks::total               294681                       # number of writebacks
system.l2cache.demand_mshr_misses::.cpu.inst         9771                       # number of demand (read+write) MSHR misses
system.l2cache.demand_mshr_misses::.cpu.data      6441010                       # number of demand (read+write) MSHR misses
system.l2cache.demand_mshr_misses::total      6450781                       # number of demand (read+write) MSHR misses
system.l2cache.overall_mshr_misses::.cpu.inst         9771                       # number of overall MSHR misses
system.l2cache.overall_mshr_misses::.cpu.data      6441010                       # number of overall MSHR misses
system.l2cache.overall_mshr_misses::total      6450781                       # number of overall MSHR misses
system.l2cache.demand_mshr_miss_latency::.cpu.inst    766519000                       # number of demand (read+write) MSHR miss cycles
system.l2cache.demand_mshr_miss_latency::.cpu.data 490419379000                       # number of demand (read+write) MSHR miss cycles
system.l2cache.demand_mshr_miss_latency::total 491185898000                       # number of demand (read+write) MSHR miss cycles
system.l2cache.overall_mshr_miss_latency::.cpu.inst    766519000                       # number of overall MSHR miss cycles
system.l2cache.overall_mshr_miss_latency::.cpu.data 490419379000                       # number of overall MSHR miss cycles
system.l2cache.overall_mshr_miss_latency::total 491185898000                       # number of overall MSHR miss cycles
system.l2cache.demand_mshr_miss_rate::.cpu.inst     0.521593                       # mshr miss rate for demand accesses
system.l2cache.demand_mshr_miss_rate::.cpu.data     0.974619                       # mshr miss rate for demand accesses
system.l2cache.demand_mshr_miss_rate::total     0.973338                       # mshr miss rate for demand accesses
system.l2cache.overall_mshr_miss_rate::.cpu.inst     0.521593                       # mshr miss rate for overall accesses
system.l2cache.overall_mshr_miss_rate::.cpu.data     0.974619                       # mshr miss rate for overall accesses
system.l2cache.overall_mshr_miss_rate::total     0.973338                       # mshr miss rate for overall accesses
system.l2cache.demand_avg_mshr_miss_latency::.cpu.inst 78448.367618                       # average overall mshr miss latency
system.l2cache.demand_avg_mshr_miss_latency::.cpu.data 76140.136252                       # average overall mshr miss latency
system.l2cache.demand_avg_mshr_miss_latency::total 76143.632531                       # average overall mshr miss latency
system.l2cache.overall_avg_mshr_miss_latency::.cpu.inst 78448.367618                       # average overall mshr miss latency
system.l2cache.overall_avg_mshr_miss_latency::.cpu.data 76140.136252                       # average overall mshr miss latency
system.l2cache.overall_avg_mshr_miss_latency::total 76143.632531                       # average overall mshr miss latency
system.l2cache.replacements                   6398582                       # number of replacements
system.l2cache.WritebackDirty_hits::.writebacks       403506                       # number of WritebackDirty hits
system.l2cache.WritebackDirty_hits::total       403506                       # number of WritebackDirty hits
system.l2cache.WritebackDirty_misses::.writebacks          206                       # number of WritebackDirty misses
system.l2cache.WritebackDirty_misses::total          206                       # number of WritebackDirty misses
system.l2cache.WritebackDirty_accesses::.writebacks       403712                       # number of WritebackDirty accesses(hits+misses)
system.l2cache.WritebackDirty_accesses::total       403712                       # number of WritebackDirty accesses(hits+misses)
system.l2cache.WritebackDirty_miss_rate::.writebacks     0.000510                       # miss rate for WritebackDirty accesses
system.l2cache.WritebackDirty_miss_rate::total     0.000510                       # miss rate for WritebackDirty accesses
system.l2cache.WritebackDirty_mshr_misses::.writebacks          206                       # number of WritebackDirty MSHR misses
system.l2cache.WritebackDirty_mshr_misses::total          206                       # number of WritebackDirty MSHR misses
system.l2cache.WritebackDirty_mshr_miss_rate::.writebacks     0.000510                       # mshr miss rate for WritebackDirty accesses
system.l2cache.WritebackDirty_mshr_miss_rate::total     0.000510                       # mshr miss rate for WritebackDirty accesses
system.l2cache.CleanEvict_mshr_misses::.writebacks        65152                       # number of CleanEvict MSHR misses
system.l2cache.CleanEvict_mshr_misses::total        65152                       # number of CleanEvict MSHR misses
system.l2cache.CleanEvict_mshr_miss_rate::.writebacks          inf                       # mshr miss rate for CleanEvict accesses
system.l2cache.CleanEvict_mshr_miss_rate::total          inf                       # mshr miss rate for CleanEvict accesses
system.l2cache.ReadExReq_hits::.cpu.data        49841                       # number of ReadExReq hits
system.l2cache.ReadExReq_hits::total            49841                       # number of ReadExReq hits
system.l2cache.ReadExReq_misses::.cpu.data        68130                       # number of ReadExReq misses
system.l2cache.ReadExReq_misses::total          68130                       # number of ReadExReq misses
system.l2cache.ReadExReq_miss_latency::.cpu.data   7045876000                       # number of ReadExReq miss cycles
system.l2cache.ReadExReq_miss_latency::total   7045876000                       # number of ReadExReq miss cycles
system.l2cache.ReadExReq_accesses::.cpu.data       117971                       # number of ReadExReq accesses(hits+misses)
system.l2cache.ReadExReq_accesses::total       117971                       # number of ReadExReq accesses(hits+misses)
system.l2cache.ReadExReq_miss_rate::.cpu.data     0.577515                       # miss rate for ReadExReq accesses
system.l2cache.ReadExReq_miss_rate::total     0.577515                       # miss rate for ReadExReq accesses
system.l2cache.ReadExReq_avg_miss_latency::.cpu.data 103418.112432                       # average ReadExReq miss latency
system.l2cache.ReadExReq_avg_miss_latency::total 103418.112432                       # average ReadExReq miss latency
system.l2cache.ReadExReq_mshr_misses::.cpu.data        68130                       # number of ReadExReq MSHR misses
system.l2cache.ReadExReq_mshr_misses::total        68130                       # number of ReadExReq MSHR misses
system.l2cache.ReadExReq_mshr_miss_latency::.cpu.data   5683276000                       # number of ReadExReq MSHR miss cycles
system.l2cache.ReadExReq_mshr_miss_latency::total   5683276000                       # number of ReadExReq MSHR miss cycles
system.l2cache.ReadExReq_mshr_miss_rate::.cpu.data     0.577515                       # mshr miss rate for ReadExReq accesses
system.l2cache.ReadExReq_mshr_miss_rate::total     0.577515                       # mshr miss rate for ReadExReq accesses
system.l2cache.ReadExReq_avg_mshr_miss_latency::.cpu.data 83418.112432                       # average ReadExReq mshr miss latency
system.l2cache.ReadExReq_avg_mshr_miss_latency::total 83418.112432                       # average ReadExReq mshr miss latency
system.l2cache.ReadSharedReq_hits::.cpu.inst         8962                       # number of ReadSharedReq hits
system.l2cache.ReadSharedReq_hits::.cpu.data       117896                       # number of ReadSharedReq hits
system.l2cache.ReadSharedReq_hits::total       126858                       # number of ReadSharedReq hits
system.l2cache.ReadSharedReq_misses::.cpu.inst         9771                       # number of ReadSharedReq misses
system.l2cache.ReadSharedReq_misses::.cpu.data      6372880                       # number of ReadSharedReq misses
system.l2cache.ReadSharedReq_misses::total      6382651                       # number of ReadSharedReq misses
system.l2cache.ReadSharedReq_miss_latency::.cpu.inst    961939000                       # number of ReadSharedReq miss cycles
system.l2cache.ReadSharedReq_miss_latency::.cpu.data 612193703000                       # number of ReadSharedReq miss cycles
system.l2cache.ReadSharedReq_miss_latency::total 613155642000                       # number of ReadSharedReq miss cycles
system.l2cache.ReadSharedReq_accesses::.cpu.inst        18733                       # number of ReadSharedReq accesses(hits+misses)
system.l2cache.ReadSharedReq_accesses::.cpu.data      6490776                       # number of ReadSharedReq accesses(hits+misses)
system.l2cache.ReadSharedReq_accesses::total      6509509                       # number of ReadSharedReq accesses(hits+misses)
system.l2cache.ReadSharedReq_miss_rate::.cpu.inst     0.521593                       # miss rate for ReadSharedReq accesses
system.l2cache.ReadSharedReq_miss_rate::.cpu.data     0.981836                       # miss rate for ReadSharedReq accesses
system.l2cache.ReadSharedReq_miss_rate::total     0.980512                       # miss rate for ReadSharedReq accesses
system.l2cache.ReadSharedReq_avg_miss_latency::.cpu.inst 98448.367618                       # average ReadSharedReq miss latency
system.l2cache.ReadSharedReq_avg_miss_latency::.cpu.data 96062.330218                       # average ReadSharedReq miss latency
system.l2cache.ReadSharedReq_avg_miss_latency::total 96065.982928                       # average ReadSharedReq miss latency
system.l2cache.ReadSharedReq_mshr_misses::.cpu.inst         9771                       # number of ReadSharedReq MSHR misses
system.l2cache.ReadSharedReq_mshr_misses::.cpu.data      6372880                       # number of ReadSharedReq MSHR misses
system.l2cache.ReadSharedReq_mshr_misses::total      6382651                       # number of ReadSharedReq MSHR misses
system.l2cache.ReadSharedReq_mshr_miss_latency::.cpu.inst    766519000                       # number of ReadSharedReq MSHR miss cycles
system.l2cache.ReadSharedReq_mshr_miss_latency::.cpu.data 484736103000                       # number of ReadSharedReq MSHR miss cycles
system.l2cache.ReadSharedReq_mshr_miss_latency::total 485502622000                       # number of ReadSharedReq MSHR miss cycles
system.l2cache.ReadSharedReq_mshr_miss_rate::.cpu.inst     0.521593                       # mshr miss rate for ReadSharedReq accesses
system.l2cache.ReadSharedReq_mshr_miss_rate::.cpu.data     0.981836                       # mshr miss rate for ReadSharedReq accesses
system.l2cache.ReadSharedReq_mshr_miss_rate::total     0.980512                       # mshr miss rate for ReadSharedReq accesses
system.l2cache.ReadSharedReq_avg_mshr_miss_latency::.cpu.inst 78448.367618                       # average ReadSharedReq mshr miss latency
system.l2cache.ReadSharedReq_avg_mshr_miss_latency::.cpu.data 76062.330218                       # average ReadSharedReq mshr miss latency
system.l2cache.ReadSharedReq_avg_mshr_miss_latency::total 76065.982928                       # average ReadSharedReq mshr miss latency
system.l2cache.power_state.pwrStateResidencyTicks::UNDEFINED 1703793794000                       # Cumulative time (in ticks) in various power states
system.l2cache.replacement_policy.totalBypasses        64221                       # Total number of cache bypasses
system.l2cache.replacement_policy.effectiveBypasses           87                       # Bypasses that correctly skipped non-reused blocks
system.l2cache.replacement_policy.ineffectiveBypasses        28324                       # Bypasses that incorrectly skipped requested blocks
system.l2cache.replacement_policy.virtualEffectiveBypasses         1029                       # Virtual bypasses correctly predicting non-reused blocks
system.l2cache.replacement_policy.virtualIneffectiveBypasses       304681                       # Virtual bypasses incorrectly predicting requested blocks
system.l2cache.tags.tagsinuse             8178.695728                       # Cycle average of tags in use
system.l2cache.tags.total_refs               13124307                       # Total number of references to valid blocks.
system.l2cache.tags.sampled_refs              6406774                       # Sample count of references to valid blocks.
system.l2cache.tags.avg_refs                 2.048505                       # Average number of references to valid blocks.
system.l2cache.tags.warmup_cycle             15411000                       # Cycle when the warmup percentage was hit.
system.l2cache.tags.occ_blocks::.writebacks    24.614617                       # Average occupied blocks per requestor
system.l2cache.tags.occ_blocks::.cpu.inst    10.307476                       # Average occupied blocks per requestor
system.l2cache.tags.occ_blocks::.cpu.data  8143.773635                       # Average occupied blocks per requestor
system.l2cache.tags.occ_percent::.writebacks     0.003005                       # Average percentage of cache occupancy
system.l2cache.tags.occ_percent::.cpu.inst     0.001258                       # Average percentage of cache occupancy
system.l2cache.tags.occ_percent::.cpu.data     0.994113                       # Average percentage of cache occupancy
system.l2cache.tags.occ_percent::total       0.998376                       # Average percentage of cache occupancy
system.l2cache.tags.occ_task_id_blocks::1024         8192                       # Occupied blocks per task id
system.l2cache.tags.age_task_id_blocks_1024::0           59                       # Occupied blocks per task id
system.l2cache.tags.age_task_id_blocks_1024::1          145                       # Occupied blocks per task id
system.l2cache.tags.age_task_id_blocks_1024::2         2159                       # Occupied blocks per task id
system.l2cache.tags.age_task_id_blocks_1024::3         5829                       # Occupied blocks per task id
system.l2cache.tags.occ_task_id_percent::1024            1                       # Percentage of cache occupancy per task id
system.l2cache.tags.tag_accesses            112436214                       # Number of tag accesses
system.l2cache.tags.data_accesses           112436214                       # Number of data accesses
system.l2cache.tags.power_state.pwrStateResidencyTicks::UNDEFINED 1703793794000                       # Cumulative time (in ticks) in various power states
system.mem_ctrl.avgPriority_.writebacks::samples    294886.00                       # Average QoS priority value for accepted requests
system.mem_ctrl.avgPriority_.cpu.inst::samples      9771.00                       # Average QoS priority value for accepted requests
system.mem_ctrl.avgPriority_.cpu.data::samples   6430074.00                       # Average QoS priority value for accepted requests
system.mem_ctrl.priorityMinLatency       0.000000018750                       # per QoS priority minimum request to response latency (s)
system.mem_ctrl.priorityMaxLatency       0.005955880500                       # per QoS priority maximum request to response latency (s)
system.mem_ctrl.numReadWriteTurnArounds         17161                       # Number of turnarounds from READ to WRITE
system.mem_ctrl.numWriteReadTurnArounds         17161                       # Number of turnarounds from WRITE to READ
system.mem_ctrl.numStayReadState             13604344                       # Number of times bus staying in READ state
system.mem_ctrl.numStayWriteState              278070                       # Number of times bus staying in WRITE state
system.mem_ctrl.readReqs                      6450781                       # Number of read requests accepted
system.mem_ctrl.writeReqs                      294887                       # Number of write requests accepted
system.mem_ctrl.readBursts                    6450781                       # Number of controller read bursts, including those serviced by the write queue
system.mem_ctrl.writeBursts                    294887                       # Number of controller write bursts, including those merged in the write queue
system.mem_ctrl.servicedByWrQ                   10936                       # Number of controller read bursts serviced by the write queue
system.mem_ctrl.mergedWrBursts                      1                       # Number of controller write bursts merged with an existing one
system.mem_ctrl.neitherReadNorWriteReqs             0                       # Number of requests that are neither read nor write
system.mem_ctrl.avgRdQLen                        1.00                       # Average read queue length when enqueuing
system.mem_ctrl.avgWrQLen                       24.94                       # Average write queue length when enqueuing
system.mem_ctrl.numRdRetry                          0                       # Number of times read queue was full causing retry
system.mem_ctrl.numWrRetry                          0                       # Number of times write queue was full causing retry
system.mem_ctrl.readPktSize::0                      0                       # Read request sizes (log2)
system.mem_ctrl.readPktSize::1                      0                       # Read request sizes (log2)
system.mem_ctrl.readPktSize::2                      0                       # Read request sizes (log2)
system.mem_ctrl.readPktSize::3                      0                       # Read request sizes (log2)
system.mem_ctrl.readPktSize::4                      0                       # Read request sizes (log2)
system.mem_ctrl.readPktSize::5                      0                       # Read request sizes (log2)
system.mem_ctrl.readPktSize::6                6450781                       # Read request sizes (log2)
system.mem_ctrl.writePktSize::0                     0                       # Write request sizes (log2)
system.mem_ctrl.writePktSize::1                     0                       # Write request sizes (log2)
system.mem_ctrl.writePktSize::2                     0                       # Write request sizes (log2)
system.mem_ctrl.writePktSize::3                     0                       # Write request sizes (log2)
system.mem_ctrl.writePktSize::4                     0                       # Write request sizes (log2)
system.mem_ctrl.writePktSize::5                     0                       # Write request sizes (log2)
system.mem_ctrl.writePktSize::6                294887                       # Write request sizes (log2)
system.mem_ctrl.rdQLenPdf::0                  6439763                       # What read queue length does an incoming req see
system.mem_ctrl.rdQLenPdf::1                       82                       # What read queue length does an incoming req see
system.mem_ctrl.rdQLenPdf::2                        0                       # What read queue length does an incoming req see
system.mem_ctrl.rdQLenPdf::3                        0                       # What read queue length does an incoming req see
system.mem_ctrl.rdQLenPdf::4                        0                       # What read queue length does an incoming req see
system.mem_ctrl.rdQLenPdf::5                        0                       # What read queue length does an incoming req see
system.mem_ctrl.rdQLenPdf::6                        0                       # What read queue length does an incoming req see
system.mem_ctrl.rdQLenPdf::7                        0                       # What read queue length does an incoming req see
system.mem_ctrl.rdQLenPdf::8                        0                       # What read queue length does an incoming req see
system.mem_ctrl.rdQLenPdf::9                        0                       # What read queue length does an incoming req see
system.mem_ctrl.rdQLenPdf::10                       0                       # What read queue length does an incoming req see
system.mem_ctrl.rdQLenPdf::11                       0                       # What read queue length does an incoming req see
system.mem_ctrl.rdQLenPdf::12                       0                       # What read queue length does an incoming req see
system.mem_ctrl.rdQLenPdf::13                       0                       # What read queue length does an incoming req see
system.mem_ctrl.rdQLenPdf::14                       0                       # What read queue length does an incoming req see
system.mem_ctrl.rdQLenPdf::15                       0                       # What read queue length does an incoming req see
system.mem_ctrl.rdQLenPdf::16                       0                       # What read queue length does an incoming req see
system.mem_ctrl.rdQLenPdf::17                       0                       # What read queue length does an incoming req see
system.mem_ctrl.rdQLenPdf::18                       0                       # What read queue length does an incoming req see
system.mem_ctrl.rdQLenPdf::19                       0                       # What read queue length does an incoming req see
system.mem_ctrl.rdQLenPdf::20                       0                       # What read queue length does an incoming req see
system.mem_ctrl.rdQLenPdf::21                       0                       # What read queue length does an incoming req see
system.mem_ctrl.rdQLenPdf::22                       0                       # What read queue length does an incoming req see
system.mem_ctrl.rdQLenPdf::23                       0                       # What read queue length does an incoming req see
system.mem_ctrl.rdQLenPdf::24                       0                       # What read queue length does an incoming req see
system.mem_ctrl.rdQLenPdf::25                       0                       # What read queue length does an incoming req see
system.mem_ctrl.rdQLenPdf::26                       0                       # What read queue length does an incoming req see
system.mem_ctrl.rdQLenPdf::27                       0                       # What read queue length does an incoming req see
system.mem_ctrl.rdQLenPdf::28                       0                       # What read queue length does an incoming req see
system.mem_ctrl.rdQLenPdf::29                       0                       # What read queue length does an incoming req see
system.mem_ctrl.rdQLenPdf::30                       0                       # What read queue length does an incoming req see
system.mem_ctrl.rdQLenPdf::31                       0                       # What read queue length does an incoming req see
system.mem_ctrl.wrQLenPdf::0                        1                       # What write queue length does an incoming req see
system.mem_ctrl.wrQLenPdf::1                        1                       # What write queue length does an incoming req see
system.mem_ctrl.wrQLenPdf::2                        1                       # What write queue length does an incoming req see
system.mem_ctrl.wrQLenPdf::3                        1                       # What write queue length does an incoming req see
system.mem_ctrl.wrQLenPdf::4                        1                       # What write queue length does an incoming req see
system.mem_ctrl.wrQLenPdf::5                        1                       # What write queue length does an incoming req see
system.mem_ctrl.wrQLenPdf::6                        1                       # What write queue length does an incoming req see
system.mem_ctrl.wrQLenPdf::7                        1                       # What write queue length does an incoming req see
system.mem_ctrl.wrQLenPdf::8                        1                       # What write queue length does an incoming req see
system.mem_ctrl.wrQLenPdf::9                        1                       # What write queue length does an incoming req see
system.mem_ctrl.wrQLenPdf::10                       1                       # What write queue length does an incoming req see
system.mem_ctrl.wrQLenPdf::11                       1                       # What write queue length does an incoming req see
system.mem_ctrl.wrQLenPdf::12                       1                       # What write queue length does an incoming req see
system.mem_ctrl.wrQLenPdf::13                       1                       # What write queue length does an incoming req see
system.mem_ctrl.wrQLenPdf::14                       1                       # What write queue length does an incoming req see
system.mem_ctrl.wrQLenPdf::15                   10084                       # What write queue length does an incoming req see
system.mem_ctrl.wrQLenPdf::16                   10162                       # What write queue length does an incoming req see
system.mem_ctrl.wrQLenPdf::17                   17151                       # What write queue length does an incoming req see
system.mem_ctrl.wrQLenPdf::18                   17164                       # What write queue length does an incoming req see
system.mem_ctrl.wrQLenPdf::19                   17165                       # What write queue length does an incoming req see
system.mem_ctrl.wrQLenPdf::20                   17163                       # What write queue length does an incoming req see
system.mem_ctrl.wrQLenPdf::21                   17173                       # What write queue length does an incoming req see
system.mem_ctrl.wrQLenPdf::22                   17166                       # What write queue length does an incoming req see
system.mem_ctrl.wrQLenPdf::23                   17181                       # What write queue length does an incoming req see
system.mem_ctrl.wrQLenPdf::24                   17164                       # What write queue length does an incoming req see
system.mem_ctrl.wrQLenPdf::25                   17162                       # What write queue length does an incoming req see
system.mem_ctrl.wrQLenPdf::26                   17163                       # What write queue length does an incoming req see
system.mem_ctrl.wrQLenPdf::27                   17161                       # What write queue length does an incoming req see
system.mem_ctrl.wrQLenPdf::28                   17161                       # What write queue length does an incoming req see
system.mem_ctrl.wrQLenPdf::29                   17168                       # What write queue length does an incoming req see
system.mem_ctrl.wrQLenPdf::30                   17161                       # What write queue length does an incoming req see
system.mem_ctrl.wrQLenPdf::31                   17161                       # What write queue length does an incoming req see
system.mem_ctrl.wrQLenPdf::32                   17161                       # What write queue length does an incoming req see
system.mem_ctrl.wrQLenPdf::33                       0                       # What write queue length does an incoming req see
system.mem_ctrl.wrQLenPdf::34                       0                       # What write queue length does an incoming req see
system.mem_ctrl.wrQLenPdf::35                       0                       # What write queue length does an incoming req see
system.mem_ctrl.wrQLenPdf::36                       0                       # What write queue length does an incoming req see
system.mem_ctrl.wrQLenPdf::37                       0                       # What write queue length does an incoming req see
system.mem_ctrl.wrQLenPdf::38                       0                       # What write queue length does an incoming req see
system.mem_ctrl.wrQLenPdf::39                       0                       # What write queue length does an incoming req see
system.mem_ctrl.wrQLenPdf::40                       0                       # What write queue length does an incoming req see
system.mem_ctrl.wrQLenPdf::41                       0                       # What write queue length does an incoming req see
system.mem_ctrl.wrQLenPdf::42                       0                       # What write queue length does an incoming req see
system.mem_ctrl.wrQLenPdf::43                       0                       # What write queue length does an incoming req see
system.mem_ctrl.wrQLenPdf::44                       0                       # What write queue length does an incoming req see
system.mem_ctrl.wrQLenPdf::45                       0                       # What write queue length does an incoming req see
system.mem_ctrl.wrQLenPdf::46                       0                       # What write queue length does an incoming req see
system.mem_ctrl.wrQLenPdf::47                       0                       # What write queue length does an incoming req see
system.mem_ctrl.wrQLenPdf::48                       0                       # What write queue length does an incoming req see
system.mem_ctrl.wrQLenPdf::49                       0                       # What write queue length does an incoming req see
system.mem_ctrl.wrQLenPdf::50                       0                       # What write queue length does an incoming req see
system.mem_ctrl.wrQLenPdf::51                       0                       # What write queue length does an incoming req see
system.mem_ctrl.wrQLenPdf::52                       0                       # What write queue length does an incoming req see
system.mem_ctrl.wrQLenPdf::53                       0                       # What write queue length does an incoming req see
system.mem_ctrl.wrQLenPdf::54                       0                       # What write queue length does an incoming req see
system.mem_ctrl.wrQLenPdf::55                       0                       # What write queue length does an incoming req see
system.mem_ctrl.wrQLenPdf::56                       0                       # What write queue length does an incoming req see
system.mem_ctrl.wrQLenPdf::57                       0                       # What write queue length does an incoming req see
system.mem_ctrl.wrQLenPdf::58                       0                       # What write queue length does an incoming req see
system.mem_ctrl.wrQLenPdf::59                       0                       # What write queue length does an incoming req see
system.mem_ctrl.wrQLenPdf::60                       0                       # What write queue length does an incoming req see
system.mem_ctrl.wrQLenPdf::61                       0                       # What write queue length does an incoming req see
system.mem_ctrl.wrQLenPdf::62                       0                       # What write queue length does an incoming req see
system.mem_ctrl.wrQLenPdf::63                       0                       # What write queue length does an incoming req see
system.mem_ctrl.rdPerTurnAround::samples        17161                       # Reads before turning the bus around for writes
system.mem_ctrl.rdPerTurnAround::mean      374.969174                       # Reads before turning the bus around for writes
system.mem_ctrl.rdPerTurnAround::gmean      60.020454                       # Reads before turning the bus around for writes
system.mem_ctrl.rdPerTurnAround::stdev    1204.804909                       # Reads before turning the bus around for writes
system.mem_ctrl.rdPerTurnAround::0-511          15236     88.78%     88.78% # Reads before turning the bus around for writes
system.mem_ctrl.rdPerTurnAround::512-1023          507      2.95%     91.74% # Reads before turning the bus around for writes
system.mem_ctrl.rdPerTurnAround::1024-1535          249      1.45%     93.19% # Reads before turning the bus around for writes
system.mem_ctrl.rdPerTurnAround::1536-2047          107      0.62%     93.81% # Reads before turning the bus around for writes
system.mem_ctrl.rdPerTurnAround::2048-2559          297      1.73%     95.54% # Reads before turning the bus around for writes
system.mem_ctrl.rdPerTurnAround::2560-3071          346      2.02%     97.56% # Reads before turning the bus around for writes
system.mem_ctrl.rdPerTurnAround::4096-4607            3      0.02%     97.58% # Reads before turning the bus around for writes
system.mem_ctrl.rdPerTurnAround::5120-5631            1      0.01%     97.58% # Reads before turning the bus around for writes
system.mem_ctrl.rdPerTurnAround::5632-6143            4      0.02%     97.61% # Reads before turning the bus around for writes
system.mem_ctrl.rdPerTurnAround::6144-6655            1      0.01%     97.61% # Reads before turning the bus around for writes
system.mem_ctrl.rdPerTurnAround::6656-7167          383      2.23%     99.84% # Reads before turning the bus around for writes
system.mem_ctrl.rdPerTurnAround::7168-7679           14      0.08%     99.92% # Reads before turning the bus around for writes
system.mem_ctrl.rdPerTurnAround::8192-8703            1      0.01%     99.93% # Reads before turning the bus around for writes
system.mem_ctrl.rdPerTurnAround::8704-9215            9      0.05%     99.98% # Reads before turning the bus around for writes
system.mem_ctrl.rdPerTurnAround::9216-9727            2      0.01%     99.99% # Reads before turning the bus around for writes
system.mem_ctrl.rdPerTurnAround::10240-10751            1      0.01%    100.00% # Reads before turning the bus around for writes
system.mem_ctrl.rdPerTurnAround::total          17161                       # Reads before turning the bus around for writes
system.mem_ctrl.wrPerTurnAround::samples        17161                       # Writes before turning the bus around for reads
system.mem_ctrl.wrPerTurnAround::mean       17.181924                       # Writes before turning the bus around for reads
system.mem_ctrl.wrPerTurnAround::gmean      17.153316                       # Writes before turning the bus around for reads
system.mem_ctrl.wrPerTurnAround::stdev       0.984319                       # Writes before turning the bus around for reads
system.mem_ctrl.wrPerTurnAround::16              7000     40.79%     40.79% # Writes before turning the bus around for reads
system.mem_ctrl.wrPerTurnAround::17                75      0.44%     41.23% # Writes before turning the bus around for reads
[...]
system.mem_ctrl.requestorReadRate::.cpu.data 241534355.535984516144                       # Per-requestor bytes read from memory rate (Bytes/sec)
system.mem_ctrl.requestorWriteRate::.writebacks 11075856.753590216860                       # Per-requestor bytes write to memory rate (Bytes/sec)
system.mem_ctrl.requestorReadAccesses::.cpu.inst         9771                       # Per-requestor read serviced memory accesses
system.mem_ctrl.requestorReadAccesses::.cpu.data      6441010                       # Per-requestor read serviced memory accesses
system.mem_ctrl.requestorWriteAccesses::.writebacks       294887                       # Per-requestor write serviced memory accesses
system.mem_ctrl.requestorReadTotalLat::.cpu.inst    264921250                       # Per-requestor read total memory access latency
system.mem_ctrl.requestorReadTotalLat::.cpu.data 160165801750                       # Per-requestor read total memory access latency
system.mem_ctrl.requestorWriteTotalLat::.writebacks 41120918045000                       # Per-requestor write total memory access latency
system.mem_ctrl.requestorReadAvgLat::.cpu.inst     27113.01                       # Per-requestor read average memory access latency
system.mem_ctrl.requestorReadAvgLat::.cpu.data     24866.57                       # Per-requestor read average memory access latency
system.mem_ctrl.requestorWriteAvgLat::.writebacks 139446357.57                       # Per-requestor write average memory access latency
system.mem_ctrl.dram.bytes_read::.cpu.inst       625344                       # Number of bytes read from this memory
system.mem_ctrl.dram.bytes_read::.cpu.data    412224640                       # Number of bytes read from this memory
system.mem_ctrl.dram.bytes_read::total      412849984                       # Number of bytes read from this memory
system.mem_ctrl.dram.bytes_inst_read::.cpu.inst       625344                       # Number of instructions bytes read from this memory
system.mem_ctrl.dram.bytes_inst_read::total       625344                       # Number of instructions bytes read from this memory
system.mem_ctrl.dram.bytes_written::.writebacks     18872768                       # Number of bytes written to this memory
system.mem_ctrl.dram.bytes_written::total     18872768                       # Number of bytes written to this memory
system.mem_ctrl.dram.num_reads::.cpu.inst         9771                       # Number of read requests responded to by this memory
system.mem_ctrl.dram.num_reads::.cpu.data      6441010                       # Number of read requests responded to by this memory
system.mem_ctrl.dram.num_reads::total         6450781                       # Number of read requests responded to by this memory
system.mem_ctrl.dram.num_writes::.writebacks       294887                       # Number of write requests responded to by this memory
system.mem_ctrl.dram.num_writes::total         294887                       # Number of write requests responded to by this memory
system.mem_ctrl.dram.bw_read::.cpu.inst        367030                       # Total read bandwidth from this memory (bytes/s)
system.mem_ctrl.dram.bw_read::.cpu.data     241945147                       # Total read bandwidth from this memory (bytes/s)
system.mem_ctrl.dram.bw_read::total         242312177                       # Total read bandwidth from this memory (bytes/s)
system.mem_ctrl.dram.bw_inst_read::.cpu.inst       367030                       # Instruction read bandwidth from this memory (bytes/s)
system.mem_ctrl.dram.bw_inst_read::total       367030                       # Instruction read bandwidth from this memory (bytes/s)
system.mem_ctrl.dram.bw_write::.writebacks     11076909                       # Write bandwidth from this memory (bytes/s)
system.mem_ctrl.dram.bw_write::total         11076909                       # Write bandwidth from this memory (bytes/s)
system.mem_ctrl.dram.bw_total::.writebacks     11076909                       # Total bandwidth to/from this memory (bytes/s)
system.mem_ctrl.dram.bw_total::.cpu.inst       367030                       # Total bandwidth to/from this memory (bytes/s)
system.mem_ctrl.dram.bw_total::.cpu.data    241945147                       # Total bandwidth to/from this memory (bytes/s)
system.mem_ctrl.dram.bw_total::total        253389086                       # Total bandwidth to/from this memory (bytes/s)
system.mem_ctrl.dram.readBursts               6439845                       # Number of DRAM read bursts
system.mem_ctrl.dram.writeBursts               294859                       # Number of DRAM write bursts
system.mem_ctrl.dram.perBankRdBursts::0        432458                       # Per bank write bursts
system.mem_ctrl.dram.perBankRdBursts::1        388842                       # Per bank write bursts
system.mem_ctrl.dram.perBankRdBursts::2        378824                       # Per bank write bursts
system.mem_ctrl.dram.perBankRdBursts::3        378949                       # Per bank write bursts
system.mem_ctrl.dram.perBankRdBursts::4        380188                       # Per bank write bursts
system.mem_ctrl.dram.perBankRdBursts::5        403875                       # Per bank write bursts
system.mem_ctrl.dram.perBankRdBursts::6        438442                       # Per bank write bursts
system.mem_ctrl.dram.perBankRdBursts::7        405249                       # Per bank write bursts
system.mem_ctrl.dram.perBankRdBursts::8        406775                       # Per bank write bursts
system.mem_ctrl.dram.perBankRdBursts::9        375154                       # Per bank write bursts
system.mem_ctrl.dram.perBankRdBursts::10       378203                       # Per bank write bursts
system.mem_ctrl.dram.perBankRdBursts::11       378751                       # Per bank write bursts
system.mem_ctrl.dram.perBankRdBursts::12       395830                       # Per bank write bursts
system.mem_ctrl.dram.perBankRdBursts::13       431988                       # Per bank write bursts
system.mem_ctrl.dram.perBankRdBursts::14       432513                       # Per bank write bursts
system.mem_ctrl.dram.perBankRdBursts::15       433804                       # Per bank write bursts
system.mem_ctrl.dram.perBankWrBursts::0          5648                       # Per bank write bursts
system.mem_ctrl.dram.perBankWrBursts::1          5264                       # Per bank write bursts
system.mem_ctrl.dram.perBankWrBursts::2          5102                       # Per bank write bursts
system.mem_ctrl.dram.perBankWrBursts::3          5312                       # Per bank write bursts
system.mem_ctrl.dram.perBankWrBursts::4          6571                       # Per bank write bursts
system.mem_ctrl.dram.perBankWrBursts::5         29679                       # Per bank write bursts
system.mem_ctrl.dram.perBankWrBursts::6         51551                       # Per bank write bursts
system.mem_ctrl.dram.perBankWrBursts::7          6820                       # Per bank write bursts
system.mem_ctrl.dram.perBankWrBursts::8         40937                       # Per bank write bursts
system.mem_ctrl.dram.perBankWrBursts::9         53823                       # Per bank write bursts
system.mem_ctrl.dram.perBankWrBursts::10        56619                       # Per bank write bursts
system.mem_ctrl.dram.perBankWrBursts::11         5748                       # Per bank write bursts
system.mem_ctrl.dram.perBankWrBursts::12         4954                       # Per bank write bursts
system.mem_ctrl.dram.perBankWrBursts::13         5291                       # Per bank write bursts
system.mem_ctrl.dram.perBankWrBursts::14         5189                       # Per bank write bursts
system.mem_ctrl.dram.perBankWrBursts::15         6351                       # Per bank write bursts
system.mem_ctrl.dram.totQLat              39683629250                       # Total ticks spent queuing
system.mem_ctrl.dram.totBusLat            32199225000                       # Total ticks spent in databus transfers
system.mem_ctrl.dram.totMemAccLat        160430723000                       # Total ticks spent from burst creation until serviced by the DRAM
system.mem_ctrl.dram.avgQLat                  6162.20                       # Average queueing delay per DRAM burst
system.mem_ctrl.dram.avgBusLat                5000.00                       # Average bus latency per DRAM burst
system.mem_ctrl.dram.avgMemAccLat            24912.20                       # Average memory access latency per DRAM burst
system.mem_ctrl.dram.readRowHits              5527974                       # Number of row buffer hits during reads
system.mem_ctrl.dram.writeRowHits              238499                       # Number of row buffer hits during writes
system.mem_ctrl.dram.readRowHitRate             85.84                       # Row buffer hit rate for reads
system.mem_ctrl.dram.writeRowHitRate            80.89                       # Row buffer hit rate for writes
system.mem_ctrl.dram.bytesPerActivate::samples       968224                       # Bytes accessed per row activation
system.mem_ctrl.dram.bytesPerActivate::mean   445.165218                       # Bytes accessed per row activation
system.mem_ctrl.dram.bytesPerActivate::gmean   280.170271                       # Bytes accessed per row activation
system.mem_ctrl.dram.bytesPerActivate::stdev   359.952484                       # Bytes accessed per row activation
system.mem_ctrl.dram.bytesPerActivate::0-127       235396     24.31%     24.31% # Bytes accessed per row activation
system.mem_ctrl.dram.bytesPerActivate::128-255       155370     16.05%     40.36% # Bytes accessed per row activation
system.mem_ctrl.dram.bytesPerActivate::256-383        92015      9.50%     49.86% # Bytes accessed per row activation
system.mem_ctrl.dram.bytesPerActivate::384-511        98565     10.18%     60.04% # Bytes accessed per row activation
system.mem_ctrl.dram.bytesPerActivate::512-639        15882      1.64%     61.68% # Bytes accessed per row activation
system.mem_ctrl.dram.bytesPerActivate::640-767       171164     17.68%     79.36% # Bytes accessed per row activation
system.mem_ctrl.dram.bytesPerActivate::768-895        10331      1.07%     80.43% # Bytes accessed per row activation
system.mem_ctrl.dram.bytesPerActivate::896-1023         9151      0.95%     81.37% # Bytes accessed per row activation
system.mem_ctrl.dram.bytesPerActivate::1024-1151       180350     18.63%    100.00% # Bytes accessed per row activation
system.mem_ctrl.dram.bytesPerActivate::total       968224                       # Bytes accessed per row activation
system.mem_ctrl.dram.bytesRead              412150080                       # Total number of bytes read from DRAM
system.mem_ctrl.dram.bytesWritten            18870976                       # Total number of bytes written to DRAM
system.mem_ctrl.dram.avgRdBW               241.901386                       # Average DRAM read bandwidth in MiBytes/s
system.mem_ctrl.dram.avgWrBW                11.075857                       # Average DRAM write bandwidth in MiBytes/s
system.mem_ctrl.dram.peakBW                  12800.00                       # Theoretical peak bandwidth in MiByte/s
system.mem_ctrl.dram.busUtil                     1.98                       # Data bus utilization in percentage
system.mem_ctrl.dram.busUtilRead                 1.89                       # Data bus utilization in percentage for reads
system.mem_ctrl.dram.busUtilWrite                0.09                       # Data bus utilization in percentage for writes
system.mem_ctrl.dram.pageHitRate                85.62                       # Row buffer hit rate, read and write combined
system.mem_ctrl.dram.power_state.pwrStateResidencyTicks::UNDEFINED 1703793794000                       # Cumulative time (in ticks) in various power states
system.mem_ctrl.dram.rank0.actEnergy       2766400140                       # Energy for activate commands per rank (pJ)
system.mem_ctrl.dram.rank0.preEnergy       1470365160                       # Energy for precharge commands per rank (pJ)
system.mem_ctrl.dram.rank0.readEnergy     22896744780                       # Energy for read commands per rank (pJ)
system.mem_ctrl.dram.rank0.writeEnergy      605243340                       # Energy for write commands per rank (pJ)
system.mem_ctrl.dram.rank0.refreshEnergy 134495524800.000015                       # Energy for refresh commands per rank (pJ)
system.mem_ctrl.dram.rank0.actBackEnergy 556132952220                       # Energy for active background per rank (pJ)
system.mem_ctrl.dram.rank0.preBackEnergy 185934331200                       # Energy for precharge background per rank (pJ)
system.mem_ctrl.dram.rank0.actPowerDownEnergy            0                       # Energy for active power-down per rank (pJ)
system.mem_ctrl.dram.rank0.prePowerDownEnergy            0                       # Energy for precharge power-down per rank (pJ)
system.mem_ctrl.dram.rank0.selfRefreshEnergy            0                       # Energy for self refresh per rank (pJ)
system.mem_ctrl.dram.rank0.totalEnergy   904301561640                       # Total energy per rank (pJ)
system.mem_ctrl.dram.rank0.averagePower    530.757633                       # Core power per rank (mW)
system.mem_ctrl.dram.rank0.totalIdleTime            0                       # Total Idle time Per DRAM Rank
system.mem_ctrl.dram.rank0.pwrStateTime::IDLE 478167744000                       # Time in different power states
system.mem_ctrl.dram.rank0.pwrStateTime::REF  56893200000                       # Time in different power states
system.mem_ctrl.dram.rank0.pwrStateTime::SREF            0                       # Time in different power states
system.mem_ctrl.dram.rank0.pwrStateTime::PRE_PDN            0                       # Time in different power states
system.mem_ctrl.dram.rank0.pwrStateTime::ACT 1168732850000                       # Time in different power states
system.mem_ctrl.dram.rank0.pwrStateTime::ACT_PDN            0                       # Time in different power states
system.mem_ctrl.dram.rank1.actEnergy       4146769200                       # Energy for activate commands per rank (pJ)
system.mem_ctrl.dram.rank1.preEnergy       2204044920                       # Energy for precharge commands per rank (pJ)
system.mem_ctrl.dram.rank1.readEnergy     23083748520                       # Energy for read commands per rank (pJ)
system.mem_ctrl.dram.rank1.writeEnergy      933920640                       # Energy for write commands per rank (pJ)
system.mem_ctrl.dram.rank1.refreshEnergy 134495524800.000015                       # Energy for refresh commands per rank (pJ)
system.mem_ctrl.dram.rank1.actBackEnergy 572569688250                       # Energy for active background per rank (pJ)
system.mem_ctrl.dram.rank1.preBackEnergy 172092869280                       # Energy for precharge background per rank (pJ)
system.mem_ctrl.dram.rank1.actPowerDownEnergy            0                       # Energy for active power-down per rank (pJ)
system.mem_ctrl.dram.rank1.prePowerDownEnergy            0                       # Energy for precharge power-down per rank (pJ)
system.mem_ctrl.dram.rank1.selfRefreshEnergy            0                       # Energy for self refresh per rank (pJ)
system.mem_ctrl.dram.rank1.totalEnergy   909526565610                       # Total energy per rank (pJ)
system.mem_ctrl.dram.rank1.averagePower    533.824321                       # Core power per rank (mW)
system.mem_ctrl.dram.rank1.totalIdleTime            0                       # Total Idle time Per DRAM Rank
system.mem_ctrl.dram.rank1.pwrStateTime::IDLE 439501068250                       # Time in different power states
system.mem_ctrl.dram.rank1.pwrStateTime::REF  56893200000                       # Time in different power states
system.mem_ctrl.dram.rank1.pwrStateTime::SREF            0                       # Time in different power states
system.mem_ctrl.dram.rank1.pwrStateTime::PRE_PDN            0                       # Time in different power states
system.mem_ctrl.dram.rank1.pwrStateTime::ACT 1207399525750                       # Time in different power states
system.mem_ctrl.dram.rank1.pwrStateTime::ACT_PDN            0                       # Time in different power states
system.mem_ctrl.power_state.pwrStateResidencyTicks::UNDEFINED 1703793794000                       # Cumulative time (in ticks) in various power states
system.membus.trans_dist::ReadResp            6382651                       # Transaction distribution
system.membus.trans_dist::WritebackDirty       294887                       # Transaction distribution
system.membus.trans_dist::CleanEvict          6147619                       # Transaction distribution
system.membus.trans_dist::ReadExReq             68130                       # Transaction distribution
system.membus.trans_dist::ReadExResp            68130                       # Transaction distribution
system.membus.trans_dist::ReadSharedReq       6382651                       # Transaction distribution
system.membus.pkt_count_system.l2cache.mem_side_port::system.mem_ctrl.port     19344068                       # Packet count per connected requestor and responder (bytes)
system.membus.pkt_count_system.l2cache.mem_side_port::total     19344068                       # Packet count per connected requestor and responder (bytes)
system.membus.pkt_count::total               19344068                       # Packet count per connected requestor and responder (bytes)
system.membus.pkt_size_system.l2cache.mem_side_port::system.mem_ctrl.port    431722752                       # Cumulative packet size per connected requestor and responder (bytes)
system.membus.pkt_size_system.l2cache.mem_side_port::total    431722752                       # Cumulative packet size per connected requestor and responder (bytes)
system.membus.pkt_size::total               431722752                       # Cumulative packet size per connected requestor and responder (bytes)
system.membus.snoops                                0                       # Total snoops (count)
system.membus.snoopTraffic                          0                       # Total snoop traffic (bytes)
system.membus.snoop_fanout::samples           6450781                       # Request fanout histogram
system.membus.snoop_fanout::mean                    0                       # Request fanout histogram
system.membus.snoop_fanout::stdev                   0                       # Request fanout histogram
system.membus.snoop_fanout::underflows              0      0.00%      0.00% # Request fanout histogram
system.membus.snoop_fanout::0                 6450781    100.00%    100.00% # Request fanout histogram
system.membus.snoop_fanout::1                       0      0.00%    100.00% # Request fanout histogram
system.membus.snoop_fanout::overflows               0      0.00%    100.00% # Request fanout histogram
system.membus.snoop_fanout::min_value               0                       # Request fanout histogram
system.membus.snoop_fanout::max_value               0                       # Request fanout histogram
system.membus.snoop_fanout::total             6450781                       # Request fanout histogram
system.membus.power_state.pwrStateResidencyTicks::UNDEFINED 1703793794000                       # Cumulative time (in ticks) in various power states
system.membus.reqLayer2.occupancy         14072835000                       # Layer occupancy (ticks)
system.membus.reqLayer2.utilization               0.8                       # Layer utilization (%)
system.membus.respLayer0.occupancy        34128566750                       # Layer occupancy (ticks)
system.membus.respLayer0.utilization              2.0                       # Layer utilization (%)

---------- End Simulation Statistics   ----------
