
---------- Begin Simulation Statistics ----------
final_tick                               127666898000                       # Number of ticks from beginning of simulation (restored from checkpoints and never reset)
host_inst_rate                                 352473                       # Simulator instruction rate (inst/s)
host_mem_usage                                 666960                       # Number of bytes of host memory used
host_op_rate                                   662961                       # Simulator op (including micro ops) rate (op/s)
host_seconds                                    61.60                       # Real time elapsed on the host
host_tick_rate                             2072550999                       # Simulator tick rate (ticks/s)
sim_freq                                 1000000000000                       # Frequency of simulated ticks
sim_insts                                    21711839                       # Number of instructions simulated
sim_ops                                      40837652                       # Number of ops (including micro ops) simulated
sim_seconds                                  0.127667                       # Number of seconds simulated
sim_ticks                                127666898000                       # Number of ticks simulated
system.cpu.Branches                           1689429                       # Number of branches fetched
system.cpu.committedInsts                    21711839                       # Number of instructions committed
system.cpu.committedOps                      40837652                       # Number of ops (including micro ops) committed
system.cpu.idle_fraction                     0.000000                       # Percentage of idle cycles
system.cpu.not_idle_fraction                 1.000000                       # Percentage of non-idle cycles
system.cpu.numCycles                        127666898                       # number of cpu cycles simulated
system.cpu.numWorkItemsCompleted                    0                       # number of work items this cpu completed
system.cpu.numWorkItemsStarted                      0                       # number of work items this cpu started
system.cpu.num_busy_cycles               127666897.999000                       # Number of busy cycles
system.cpu.num_cc_register_reads              9199792                       # number of times the CC registers were read
system.cpu.num_cc_register_writes             7310707                       # number of times the CC registers were written
system.cpu.num_conditional_control_insts      1625118                       # number of instructions that are conditional controls
system.cpu.num_fp_alu_accesses               28213433                       # Number of float alu accesses
system.cpu.num_fp_insts                      28213433                       # number of float instructions
system.cpu.num_fp_register_reads             42716802                       # number of times the floating registers were read
system.cpu.num_fp_register_writes            25063170                       # number of times the floating registers were written
system.cpu.num_func_calls                       38512                       # number of times a function call or return occured
system.cpu.num_idle_cycles                   0.001000                       # Number of idle cycles
system.cpu.num_int_alu_accesses              26037506                       # Number of integer alu accesses
system.cpu.num_int_insts                     26037506                       # number of integer instructions
system.cpu.num_int_register_reads            61734644                       # number of times the integer registers were read
system.cpu.num_int_register_writes           10537959                       # number of times the integer registers were written
system.cpu.num_load_insts                    11754400                       # Number of load instructions
system.cpu.num_mem_refs                      15047324                       # number of memory refs
system.cpu.num_store_insts                    3292924                       # Number of store instructions
system.cpu.num_vec_alu_accesses                     0                       # Number of vector alu accesses
system.cpu.num_vec_insts                            0                       # number of vector instructions
system.cpu.num_vec_register_reads                   0                       # number of times the vector registers were read
system.cpu.num_vec_register_writes                  0                       # number of times the vector registers were written
system.cpu.op_class::No_OpClass                 82071      0.20%      0.20% # Class of executed instruction
system.cpu.op_class::IntAlu                  13296260     32.56%     32.76% # Class of executed instruction
system.cpu.op_class::IntMult                    80135      0.20%     32.96% # Class of executed instruction
system.cpu.op_class::IntDiv                       280      0.00%     32.96% # Class of executed instruction
system.cpu.op_class::FloatAdd                  374599      0.92%     33.87% # Class of executed instruction
system.cpu.op_class::FloatCmp                       0      0.00%     33.87% # Class of executed instruction
system.cpu.op_class::FloatCvt                       0      0.00%     33.87% # Class of executed instruction
system.cpu.op_class::FloatMult                      0      0.00%     33.87% # Class of executed instruction
system.cpu.op_class::FloatMultAcc                   0      0.00%     33.87% # Class of executed instruction
system.cpu.op_class::FloatDiv                       0      0.00%     33.87% # Class of executed instruction
system.cpu.op_class::FloatMisc                      0      0.00%     33.87% # Class of executed instruction
system.cpu.op_class::FloatSqrt                      0      0.00%     33.87% # Class of executed instruction
system.cpu.op_class::SimdAdd                       24      0.00%     33.87% # Class of executed instruction
system.cpu.op_class::SimdAddAcc                     0      0.00%     33.87% # Class of executed instruction
system.cpu.op_class::SimdAlu                   398960      0.98%     34.85% # Class of executed instruction
system.cpu.op_class::SimdCmp                       24      0.00%     34.85% # Class of executed instruction
system.cpu.op_class::SimdCvt                      730      0.00%     34.85% # Class of executed instruction
system.cpu.op_class::SimdMisc                  147076      0.36%     35.21% # Class of executed instruction
system.cpu.op_class::SimdMult                       0      0.00%     35.21% # Class of executed instruction
system.cpu.op_class::SimdMultAcc                    0      0.00%     35.21% # Class of executed instruction
system.cpu.op_class::SimdShift                      0      0.00%     35.21% # Class of executed instruction
system.cpu.op_class::SimdShiftAcc                   0      0.00%     35.21% # Class of executed instruction
system.cpu.op_class::SimdDiv                        0      0.00%     35.21% # Class of executed instruction
system.cpu.op_class::SimdSqrt                       0      0.00%     35.21% # Class of executed instruction
system.cpu.op_class::SimdFloatAdd             8763369     21.46%     56.67% # Class of executed instruction
system.cpu.op_class::SimdFloatAlu                   0      0.00%     56.67% # Class of executed instruction
system.cpu.op_class::SimdFloatCmp                   0      0.00%     56.67% # Class of executed instruction
system.cpu.op_class::SimdFloatCvt              340277      0.83%     57.51% # Class of executed instruction
system.cpu.op_class::SimdFloatDiv                   6      0.00%     57.51% # Class of executed instruction
system.cpu.op_class::SimdFloatMisc                  0      0.00%     57.51% # Class of executed instruction
system.cpu.op_class::SimdFloatMult            2306615      5.65%     63.15% # Class of executed instruction
system.cpu.op_class::SimdFloatMultAcc               0      0.00%     63.15% # Class of executed instruction
system.cpu.op_class::SimdFloatSqrt                  4      0.00%     63.15% # Class of executed instruction
system.cpu.op_class::SimdReduceAdd                  0      0.00%     63.15% # Class of executed instruction
system.cpu.op_class::SimdReduceAlu                  0      0.00%     63.15% # Class of executed instruction
system.cpu.op_class::SimdReduceCmp                  0      0.00%     63.15% # Class of executed instruction
system.cpu.op_class::SimdFloatReduceAdd             0      0.00%     63.15% # Class of executed instruction
system.cpu.op_class::SimdFloatReduceCmp             0      0.00%     63.15% # Class of executed instruction
system.cpu.op_class::SimdAes                        0      0.00%     63.15% # Class of executed instruction
system.cpu.op_class::SimdAesMix                     0      0.00%     63.15% # Class of executed instruction
system.cpu.op_class::SimdSha1Hash                   0      0.00%     63.15% # Class of executed instruction
system.cpu.op_class::SimdSha1Hash2                  0      0.00%     63.15% # Class of executed instruction
system.cpu.op_class::SimdSha256Hash                 0      0.00%     63.15% # Class of executed instruction
system.cpu.op_class::SimdSha256Hash2                0      0.00%     63.15% # Class of executed instruction
system.cpu.op_class::SimdShaSigma2                  0      0.00%     63.15% # Class of executed instruction
system.cpu.op_class::SimdShaSigma3                  0      0.00%     63.15% # Class of executed instruction
system.cpu.op_class::SimdPredAlu                    0      0.00%     63.15% # Class of executed instruction
system.cpu.op_class::MemRead                  1222350      2.99%     66.15% # Class of executed instruction
system.cpu.op_class::MemWrite                  415948      1.02%     67.17% # Class of executed instruction
system.cpu.op_class::FloatMemRead            10532050     25.79%     92.96% # Class of executed instruction
system.cpu.op_class::FloatMemWrite            2876976      7.04%    100.00% # Class of executed instruction
system.cpu.op_class::IprAccess                      0      0.00%    100.00% # Class of executed instruction
system.cpu.op_class::InstPrefetch                   0      0.00%    100.00% # Class of executed instruction
system.cpu.op_class::total                   40837754                       # Class of executed instruction
system.cpu.workload.numSyscalls                    77                       # Number of system calls
system.l2bus.snoop_filter.hit_multi_requests            0                       # Number of requests hitting in the snoop filter with multiple (>1) holders of the requested data.
system.l2bus.snoop_filter.hit_multi_snoops            0                       # Number of snoops hitting in the snoop filter with multiple (>1) holders of the requested data.
system.l2bus.snoop_filter.hit_single_requests       399658                       # Number of requests hitting in the snoop filter with a single holder of the requested data.
system.l2bus.snoop_filter.hit_single_snoops         2177                       # Number of snoops hitting in the snoop filter with a single holder of the requested data.
system.l2bus.snoop_filter.tot_requests         800596                       # Total number of requests made to the snoop filter.
system.l2bus.snoop_filter.tot_snoops             2177                       # Total number of snoops made to the snoop filter.
system.membus.snoop_filter.hit_multi_requests            0                       # Number of requests hitting in the snoop filter with multiple (>1) holders of the requested data.
system.membus.snoop_filter.hit_multi_snoops            0                       # Number of snoops hitting in the snoop filter with multiple (>1) holders of the requested data.
system.membus.snoop_filter.hit_single_requests       345503                       # Number of requests hitting in the snoop filter with a single holder of the requested data.
system.membus.snoop_filter.hit_single_snoops            0                       # Number of snoops hitting in the snoop filter with a single holder of the requested data.
system.membus.snoop_filter.tot_requests        695107                       # Total number of requests made to the snoop filter.
system.membus.snoop_filter.tot_snoops               0                       # Total number of snoops made to the snoop filter.
system.clk_domain.clock                          1000                       # Clock period in ticks
system.clk_domain.voltage_domain.voltage            1                       # Voltage in Volts
system.cpu.dcache.demand_hits::.cpu.data     14655218                       # number of demand (read+write) hits
system.cpu.dcache.demand_hits::total         14655218                       # number of demand (read+write) hits
system.cpu.dcache.overall_hits::.cpu.data     14655218                       # number of overall hits
system.cpu.dcache.overall_hits::total        14655218                       # number of overall hits
system.cpu.dcache.demand_misses::.cpu.data       392175                       # number of demand (read+write) misses
system.cpu.dcache.demand_misses::total         392175                       # number of demand (read+write) misses
system.cpu.dcache.overall_misses::.cpu.data       392175                       # number of overall misses
system.cpu.dcache.overall_misses::total        392175                       # number of overall misses
system.cpu.dcache.demand_miss_latency::.cpu.data  36686819000                       # number of demand (read+write) miss cycles
system.cpu.dcache.demand_miss_latency::total  36686819000                       # number of demand (read+write) miss cycles
system.cpu.dcache.overall_miss_latency::.cpu.data  36686819000                       # number of overall miss cycles
system.cpu.dcache.overall_miss_latency::total  36686819000                       # number of overall miss cycles
system.cpu.dcache.demand_accesses::.cpu.data     15047393                       # number of demand (read+write) accesses
system.cpu.dcache.demand_accesses::total     15047393                       # number of demand (read+write) accesses
system.cpu.dcache.overall_accesses::.cpu.data     15047393                       # number of overall (read+write) accesses
system.cpu.dcache.overall_accesses::total     15047393                       # number of overall (read+write) accesses
system.cpu.dcache.demand_miss_rate::.cpu.data     0.026063                       # miss rate for demand accesses
system.cpu.dcache.demand_miss_rate::total     0.026063                       # miss rate for demand accesses
system.cpu.dcache.overall_miss_rate::.cpu.data     0.026063                       # miss rate for overall accesses
system.cpu.dcache.overall_miss_rate::total     0.026063                       # miss rate for overall accesses
system.cpu.dcache.demand_avg_miss_latency::.cpu.data 93547.061898                       # average overall miss latency
system.cpu.dcache.demand_avg_miss_latency::total 93547.061898                       # average overall miss latency
system.cpu.dcache.overall_avg_miss_latency::.cpu.data 93547.061898                       # average overall miss latency
system.cpu.dcache.overall_avg_miss_latency::total 93547.061898                       # average overall miss latency
system.cpu.dcache.blocked_cycles::no_mshrs            0                       # number of cycles access was blocked
system.cpu.dcache.blocked_cycles::no_targets            0                       # number of cycles access was blocked
system.cpu.dcache.blocked::no_mshrs                 0                       # number of cycles access was blocked
system.cpu.dcache.blocked::no_targets               0                       # number of cycles access was blocked
system.cpu.dcache.avg_blocked_cycles::no_mshrs          nan                       # average number of cycles each access was blocked
system.cpu.dcache.avg_blocked_cycles::no_targets          nan                       # average number of cycles each access was blocked
system.cpu.dcache.writebacks::.writebacks       214285                       # number of writebacks
system.cpu.dcache.writebacks::total            214285                       # number of writebacks
system.cpu.dcache.demand_mshr_misses::.cpu.data       392175                       # number of demand (read+write) MSHR misses
system.cpu.dcache.demand_mshr_misses::total       392175                       # number of demand (read+write) MSHR misses
system.cpu.dcache.overall_mshr_misses::.cpu.data       392175                       # number of overall MSHR misses
system.cpu.dcache.overall_mshr_misses::total       392175                       # number of overall MSHR misses
system.cpu.dcache.demand_mshr_miss_latency::.cpu.data  35902469000                       # number of demand (read+write) MSHR miss cycles
system.cpu.dcache.demand_mshr_miss_latency::total  35902469000                       # number of demand (read+write) MSHR miss cycles
system.cpu.dcache.overall_mshr_miss_latency::.cpu.data  35902469000                       # number of overall MSHR miss cycles
system.cpu.dcache.overall_mshr_miss_latency::total  35902469000                       # number of overall MSHR miss cycles
system.cpu.dcache.demand_mshr_miss_rate::.cpu.data     0.026063                       # mshr miss rate for demand accesses
system.cpu.dcache.demand_mshr_miss_rate::total     0.026063                       # mshr miss rate for demand accesses
system.cpu.dcache.overall_mshr_miss_rate::.cpu.data     0.026063                       # mshr miss rate for overall accesses
system.cpu.dcache.overall_mshr_miss_rate::total     0.026063                       # mshr miss rate for overall accesses
system.cpu.dcache.demand_avg_mshr_miss_latency::.cpu.data 91547.061898                       # average overall mshr miss latency
system.cpu.dcache.demand_avg_mshr_miss_latency::total 91547.061898                       # average overall mshr miss latency
system.cpu.dcache.overall_avg_mshr_miss_latency::.cpu.data 91547.061898                       # average overall mshr miss latency
system.cpu.dcache.overall_avg_mshr_miss_latency::total 91547.061898                       # average overall mshr miss latency
system.cpu.dcache.replacements                 391151                       # number of replacements
system.cpu.dcache.ReadReq_hits::.cpu.data     11481430                       # number of ReadReq hits
system.cpu.dcache.ReadReq_hits::total        11481430                       # number of ReadReq hits
system.cpu.dcache.ReadReq_misses::.cpu.data       273021                       # number of ReadReq misses
system.cpu.dcache.ReadReq_misses::total        273021                       # number of ReadReq misses
system.cpu.dcache.ReadReq_miss_latency::.cpu.data  24927985000                       # number of ReadReq miss cycles
system.cpu.dcache.ReadReq_miss_latency::total  24927985000                       # number of ReadReq miss cycles
system.cpu.dcache.ReadReq_accesses::.cpu.data     11754451                       # number of ReadReq accesses(hits+misses)
system.cpu.dcache.ReadReq_accesses::total     11754451                       # number of ReadReq accesses(hits+misses)
system.cpu.dcache.ReadReq_miss_rate::.cpu.data     0.023227                       # miss rate for ReadReq accesses
system.cpu.dcache.ReadReq_miss_rate::total     0.023227                       # miss rate for ReadReq accesses
system.cpu.dcache.ReadReq_avg_miss_latency::.cpu.data 91304.276960                       # average ReadReq miss latency
system.cpu.dcache.ReadReq_avg_miss_latency::total 91304.276960                       # average ReadReq miss latency
system.cpu.dcache.ReadReq_mshr_misses::.cpu.data       273021                       # number of ReadReq MSHR misses
system.cpu.dcache.ReadReq_mshr_misses::total       273021                       # number of ReadReq MSHR misses
system.cpu.dcache.ReadReq_mshr_miss_latency::.cpu.data  24381943000                       # number of ReadReq MSHR miss cycles
system.cpu.dcache.ReadReq_mshr_miss_latency::total  24381943000                       # number of ReadReq MSHR miss cycles
system.cpu.dcache.ReadReq_mshr_miss_rate::.cpu.data     0.023227                       # mshr miss rate for ReadReq accesses
system.cpu.dcache.ReadReq_mshr_miss_rate::total     0.023227                       # mshr miss rate for ReadReq accesses
system.cpu.dcache.ReadReq_avg_mshr_miss_latency::.cpu.data 89304.276960                       # average ReadReq mshr miss latency
system.cpu.dcache.ReadReq_avg_mshr_miss_latency::total 89304.276960                       # average ReadReq mshr miss latency
system.cpu.dcache.WriteReq_hits::.cpu.data      3173788                       # number of WriteReq hits
system.cpu.dcache.WriteReq_hits::total        3173788                       # number of WriteReq hits
system.cpu.dcache.WriteReq_misses::.cpu.data       119154                       # number of WriteReq misses
system.cpu.dcache.WriteReq_misses::total       119154                       # number of WriteReq misses
system.cpu.dcache.WriteReq_miss_latency::.cpu.data  11758834000                       # number of WriteReq miss cycles
system.cpu.dcache.WriteReq_miss_latency::total  11758834000                       # number of WriteReq miss cycles
system.cpu.dcache.WriteReq_accesses::.cpu.data      3292942                       # number of WriteReq accesses(hits+misses)
system.cpu.dcache.WriteReq_accesses::total      3292942                       # number of WriteReq accesses(hits+misses)
system.cpu.dcache.WriteReq_miss_rate::.cpu.data     0.036185                       # miss rate for WriteReq accesses
system.cpu.dcache.WriteReq_miss_rate::total     0.036185                       # miss rate for WriteReq accesses
system.cpu.dcache.WriteReq_avg_miss_latency::.cpu.data 98686.019773                       # average WriteReq miss latency
system.cpu.dcache.WriteReq_avg_miss_latency::total 98686.019773                       # average WriteReq miss latency
system.cpu.dcache.WriteReq_mshr_misses::.cpu.data       119154                       # number of WriteReq MSHR misses
system.cpu.dcache.WriteReq_mshr_misses::total       119154                       # number of WriteReq MSHR misses
system.cpu.dcache.WriteReq_mshr_miss_latency::.cpu.data  11520526000                       # number of WriteReq MSHR miss cycles
system.cpu.dcache.WriteReq_mshr_miss_latency::total  11520526000                       # number of WriteReq MSHR miss cycles
system.cpu.dcache.WriteReq_mshr_miss_rate::.cpu.data     0.036185                       # mshr miss rate for WriteReq accesses
system.cpu.dcache.WriteReq_mshr_miss_rate::total     0.036185                       # mshr miss rate for WriteReq accesses
system.cpu.dcache.WriteReq_avg_mshr_miss_latency::.cpu.data 96686.019773                       # average WriteReq mshr miss latency
system.cpu.dcache.WriteReq_avg_mshr_miss_latency::total 96686.019773                       # average WriteReq mshr miss latency
system.cpu.dcache.power_state.pwrStateResidencyTicks::UNDEFINED 127666898000                       # Cumulative time (in ticks) in various power states
system.cpu.dcache.tags.tagsinuse          1022.200273                       # Cycle average of tags in use
system.cpu.dcache.tags.total_refs            15047393                       # Total number of references to valid blocks.
system.cpu.dcache.tags.sampled_refs            392175                       # Sample count of references to valid blocks.
system.cpu.dcache.tags.avg_refs             38.369078                       # Average number of references to valid blocks.
system.cpu.dcache.tags.warmup_cycle            224000                       # Cycle when the warmup percentage was hit.
system.cpu.dcache.tags.occ_blocks::.cpu.data  1022.200273                       # Average occupied blocks per requestor
system.cpu.dcache.tags.occ_percent::.cpu.data     0.998242                       # Average percentage of cache occupancy
system.cpu.dcache.tags.occ_percent::total     0.998242                       # Average percentage of cache occupancy
system.cpu.dcache.tags.occ_task_id_blocks::1024         1024                       # Occupied blocks per task id
system.cpu.dcache.tags.age_task_id_blocks_1024::0           27                       # Occupied blocks per task id
system.cpu.dcache.tags.age_task_id_blocks_1024::1          101                       # Occupied blocks per task id
system.cpu.dcache.tags.age_task_id_blocks_1024::2          895                       # Occupied blocks per task id
system.cpu.dcache.tags.age_task_id_blocks_1024::3            1                       # Occupied blocks per task id
system.cpu.dcache.tags.occ_task_id_percent::1024            1                       # Percentage of cache occupancy per task id
system.cpu.dcache.tags.tag_accesses          30486961                       # Number of tag accesses
system.cpu.dcache.tags.data_accesses         30486961                       # Number of data accesses
system.cpu.dcache.tags.power_state.pwrStateResidencyTicks::UNDEFINED 127666898000                       # Cumulative time (in ticks) in various power states
system.cpu.dtb.rdAccesses                    11754452                       # TLB accesses on read requests
system.cpu.dtb.wrAccesses                     3292966                       # TLB accesses on write requests
system.cpu.dtb.rdMisses                          5368                       # TLB misses on read requests
system.cpu.dtb.wrMisses                          1839                       # TLB misses on write requests
system.cpu.dtb.walker.power_state.pwrStateResidencyTicks::UNDEFINED 127666898000                       # Cumulative time (in ticks) in various power states
system.cpu.icache.demand_hits::.cpu.inst     30572434                       # number of demand (read+write) hits
system.cpu.icache.demand_hits::total         30572434                       # number of demand (read+write) hits
system.cpu.icache.overall_hits::.cpu.inst     30572434                       # number of overall hits
system.cpu.icache.overall_hits::total        30572434                       # number of overall hits
system.cpu.icache.demand_misses::.cpu.inst         8763                       # number of demand (read+write) misses
system.cpu.icache.demand_misses::total           8763                       # number of demand (read+write) misses
system.cpu.icache.overall_misses::.cpu.inst         8763                       # number of overall misses
system.cpu.icache.overall_misses::total          8763                       # number of overall misses
system.cpu.icache.demand_miss_latency::.cpu.inst    525063000                       # number of demand (read+write) miss cycles
system.cpu.icache.demand_miss_latency::total    525063000                       # number of demand (read+write) miss cycles
system.cpu.icache.overall_miss_latency::.cpu.inst    525063000                       # number of overall miss cycles
system.cpu.icache.overall_miss_latency::total    525063000                       # number of overall miss cycles
system.cpu.icache.demand_accesses::.cpu.inst     30581197                       # number of demand (read+write) accesses
system.cpu.icache.demand_accesses::total     30581197                       # number of demand (read+write) accesses
system.cpu.icache.overall_accesses::.cpu.inst     30581197                       # number of overall (read+write) accesses
system.cpu.icache.overall_accesses::total     30581197                       # number of overall (read+write) accesses
system.cpu.icache.demand_miss_rate::.cpu.inst     0.000287                       # miss rate for demand accesses
system.cpu.icache.demand_miss_rate::total     0.000287                       # miss rate for demand accesses
system.cpu.icache.overall_miss_rate::.cpu.inst     0.000287                       # miss rate for overall accesses
system.cpu.icache.overall_miss_rate::total     0.000287                       # miss rate for overall accesses
system.cpu.icache.demand_avg_miss_latency::.cpu.inst 59918.178706                       # average overall miss latency
system.cpu.icache.demand_avg_miss_latency::total 59918.178706                       # average overall miss latency
system.cpu.icache.overall_avg_miss_latency::.cpu.inst 59918.178706                       # average overall miss latency
system.cpu.icache.overall_avg_miss_latency::total 59918.178706                       # average overall miss latency
system.cpu.icache.blocked_cycles::no_mshrs            0                       # number of cycles access was blocked
system.cpu.icache.blocked_cycles::no_targets            0                       # number of cycles access was blocked
system.cpu.icache.blocked::no_mshrs                 0                       # number of cycles access was blocked
system.cpu.icache.blocked::no_targets               0                       # number of cycles access was blocked
system.cpu.icache.avg_blocked_cycles::no_mshrs          nan                       # average number of cycles each access was blocked
system.cpu.icache.avg_blocked_cycles::no_targets          nan                       # average number of cycles each access was blocked
system.cpu.icache.demand_mshr_misses::.cpu.inst         8763                       # number of demand (read+write) MSHR misses
system.cpu.icache.demand_mshr_misses::total         8763                       # number of demand (read+write) MSHR misses
system.cpu.icache.overall_mshr_misses::.cpu.inst         8763                       # number of overall MSHR misses
system.cpu.icache.overall_mshr_misses::total         8763                       # number of overall MSHR misses
system.cpu.icache.demand_mshr_miss_latency::.cpu.inst    507537000                       # number of demand (read+write) MSHR miss cycles
system.cpu.icache.demand_mshr_miss_latency::total    507537000                       # number of demand (read+write) MSHR miss cycles
system.cpu.icache.overall_mshr_miss_latency::.cpu.inst    507537000                       # number of overall MSHR miss cycles
system.cpu.icache.overall_mshr_miss_latency::total    507537000                       # number of overall MSHR miss cycles
system.cpu.icache.demand_mshr_miss_rate::.cpu.inst     0.000287                       # mshr miss rate for demand accesses
system.cpu.icache.demand_mshr_miss_rate::total     0.000287                       # mshr miss rate for demand accesses
system.cpu.icache.overall_mshr_miss_rate::.cpu.inst     0.000287                       # mshr miss rate for overall accesses
system.cpu.icache.overall_mshr_miss_rate::total     0.000287                       # mshr miss rate for overall accesses
system.cpu.icache.demand_avg_mshr_miss_latency::.cpu.inst 57918.178706                       # average overall mshr miss latency
system.cpu.icache.demand_avg_mshr_miss_latency::total 57918.178706                       # average overall mshr miss latency
system.cpu.icache.overall_avg_mshr_miss_latency::.cpu.inst 57918.178706                       # average overall mshr miss latency
system.cpu.icache.overall_avg_mshr_miss_latency::total 57918.178706                       # average overall mshr miss latency
system.cpu.icache.replacements                   8507                       # number of replacements
system.cpu.icache.ReadReq_hits::.cpu.inst     30572434                       # number of ReadReq hits
system.cpu.icache.ReadReq_hits::total        30572434                       # number of ReadReq hits
system.cpu.icache.ReadReq_misses::.cpu.inst         8763                       # number of ReadReq misses
system.cpu.icache.ReadReq_misses::total          8763                       # number of ReadReq misses
system.cpu.icache.ReadReq_miss_latency::.cpu.inst    525063000                       # number of ReadReq miss cycles
system.cpu.icache.ReadReq_miss_latency::total    525063000                       # number of ReadReq miss cycles
system.cpu.icache.ReadReq_accesses::.cpu.inst     30581197                       # number of ReadReq accesses(hits+misses)
system.cpu.icache.ReadReq_accesses::total     30581197                       # number of ReadReq accesses(hits+misses)
system.cpu.icache.ReadReq_miss_rate::.cpu.inst     0.000287                       # miss rate for ReadReq accesses
system.cpu.icache.ReadReq_miss_rate::total     0.000287                       # miss rate for ReadReq accesses
system.cpu.icache.ReadReq_avg_miss_latency::.cpu.inst 59918.178706                       # average ReadReq miss latency
system.cpu.icache.ReadReq_avg_miss_latency::total 59918.178706                       # average ReadReq miss latency
system.cpu.icache.ReadReq_mshr_misses::.cpu.inst         8763                       # number of ReadReq MSHR misses
system.cpu.icache.ReadReq_mshr_misses::total         8763                       # number of ReadReq MSHR misses
system.cpu.icache.ReadReq_mshr_miss_latency::.cpu.inst    507537000                       # number of ReadReq MSHR miss cycles
system.cpu.icache.ReadReq_mshr_miss_latency::total    507537000                       # number of ReadReq MSHR miss cycles
system.cpu.icache.ReadReq_mshr_miss_rate::.cpu.inst     0.000287                       # mshr miss rate for ReadReq accesses
system.cpu.icache.ReadReq_mshr_miss_rate::total     0.000287                       # mshr miss rate for ReadReq accesses
system.cpu.icache.ReadReq_avg_mshr_miss_latency::.cpu.inst 57918.178706                       # average ReadReq mshr miss latency
system.cpu.icache.ReadReq_avg_mshr_miss_latency::total 57918.178706                       # average ReadReq mshr miss latency
system.cpu.icache.power_state.pwrStateResidencyTicks::UNDEFINED 127666898000                       # Cumulative time (in ticks) in various power states
system.cpu.icache.tags.tagsinuse           255.897818                       # Cycle average of tags in use
system.cpu.icache.tags.total_refs            30581197                       # Total number of references to valid blocks.
system.cpu.icache.tags.sampled_refs              8763                       # Sample count of references to valid blocks.
system.cpu.icache.tags.avg_refs           3489.809084                       # Average number of references to valid blocks.
system.cpu.icache.tags.warmup_cycle            107000                       # Cycle when the warmup percentage was hit.
system.cpu.icache.tags.occ_blocks::.cpu.inst   255.897818                       # Average occupied blocks per requestor
system.cpu.icache.tags.occ_percent::.cpu.inst     0.999601                       # Average percentage of cache occupancy
system.cpu.icache.tags.occ_percent::total     0.999601                       # Average percentage of cache occupancy
system.cpu.icache.tags.occ_task_id_blocks::1024          256                       # Occupied blocks per task id
system.cpu.icache.tags.age_task_id_blocks_1024::0           33                       # Occupied blocks per task id
system.cpu.icache.tags.age_task_id_blocks_1024::1          109                       # Occupied blocks per task id
system.cpu.icache.tags.age_task_id_blocks_1024::2          113                       # Occupied blocks per task id
system.cpu.icache.tags.age_task_id_blocks_1024::4            1                       # Occupied blocks per task id
system.cpu.icache.tags.occ_task_id_percent::1024            1                       # Percentage of cache occupancy per task id
system.cpu.icache.tags.tag_accesses          61171157                       # Number of tag accesses
system.cpu.icache.tags.data_accesses         61171157                       # Number of data accesses
system.cpu.icache.tags.power_state.pwrStateResidencyTicks::UNDEFINED 127666898000                       # Cumulative time (in ticks) in various power states
system.cpu.interrupts.clk_domain.clock          16000                       # Clock period in ticks
system.cpu.itb.rdAccesses                           0                       # TLB accesses on read requests
system.cpu.itb.wrAccesses                    30581197                       # TLB accesses on write requests
system.cpu.itb.rdMisses                             0                       # TLB misses on read requests
system.cpu.itb.wrMisses                           132                       # TLB misses on write requests
system.cpu.itb.walker.power_state.pwrStateResidencyTicks::UNDEFINED 127666898000                       # Cumulative time (in ticks) in various power states
system.cpu.power_state.pwrStateResidencyTicks::ON 127666898000                       # Cumulative time (in ticks) in various power states
system.cpu.thread_0.numInsts                        0                       # Number of Instructions committed
system.cpu.thread_0.numOps                          0                       # Number of Ops committed
system.cpu.thread_0.numMemRefs                      0                       # Number of Memory References
system.l2bus.trans_dist::ReadResp              281784                       # Transaction distribution
system.l2bus.trans_dist::WritebackDirty        386592                       # Transaction distribution
system.l2bus.trans_dist::CleanEvict            358946                       # Transaction distribution
system.l2bus.trans_dist::ReadExReq             119154                       # Transaction distribution
system.l2bus.trans_dist::ReadExResp            119154                       # Transaction distribution
system.l2bus.trans_dist::ReadSharedReq         281784                       # Transaction distribution
system.l2bus.pkt_count_system.cpu.icache.mem_side_port::system.l2cache.cpu_side_port        26033                       # Packet count per connected requestor and responder (bytes)
system.l2bus.pkt_count_system.cpu.dcache.mem_side_port::system.l2cache.cpu_side_port      1175501                       # Packet count per connected requestor and responder (bytes)
system.l2bus.pkt_count::total                 1201534                       # Packet count per connected requestor and responder (bytes)
system.l2bus.pkt_size_system.cpu.icache.mem_side_port::system.l2cache.cpu_side_port       560832                       # Cumulative packet size per connected requestor and responder (bytes)
system.l2bus.pkt_size_system.cpu.dcache.mem_side_port::system.l2cache.cpu_side_port     38813440                       # Cumulative packet size per connected requestor and responder (bytes)
system.l2bus.pkt_size::total                 39374272                       # Cumulative packet size per connected requestor and responder (bytes)
system.l2bus.snoops                            345880                       # Total snoops (count)
system.l2bus.snoopTraffic                    11027648                       # Total snoop traffic (bytes)
system.l2bus.snoop_fanout::samples             746818                       # Request fanout histogram
system.l2bus.snoop_fanout::mean              0.002915                       # Request fanout histogram
system.l2bus.snoop_fanout::stdev             0.053912                       # Request fanout histogram
system.l2bus.snoop_fanout::underflows               0      0.00%      0.00% # Request fanout histogram
system.l2bus.snoop_fanout::0                   744641     99.71%     99.71% # Request fanout histogram
system.l2bus.snoop_fanout::1                     2177      0.29%    100.00% # Request fanout histogram
system.l2bus.snoop_fanout::2                        0      0.00%    100.00% # Request fanout histogram
system.l2bus.snoop_fanout::overflows                0      0.00%    100.00% # Request fanout histogram
system.l2bus.snoop_fanout::min_value                0                       # Request fanout histogram
system.l2bus.snoop_fanout::max_value                1                       # Request fanout histogram
system.l2bus.snoop_fanout::total               746818                       # Request fanout histogram
system.l2bus.power_state.pwrStateResidencyTicks::UNDEFINED 127666898000                       # Cumulative time (in ticks) in various power states
system.l2bus.reqLayer0.occupancy           1229166000                       # Layer occupancy (ticks)
system.l2bus.reqLayer0.utilization                1.0                       # Layer utilization (%)
system.l2bus.respLayer0.occupancy            26289000                       # Layer occupancy (ticks)
system.l2bus.respLayer0.utilization               0.0                       # Layer utilization (%)
system.l2bus.respLayer1.occupancy          1176525000                       # Layer occupancy (ticks)
system.l2bus.respLayer1.utilization               0.9                       # Layer utilization (%)
system.l2cache.demand_hits::.cpu.inst            4993                       # number of demand (read+write) hits
system.l2cache.demand_hits::.cpu.data           46341                       # number of demand (read+write) hits
system.l2cache.demand_hits::total               51334                       # number of demand (read+write) hits
system.l2cache.overall_hits::.cpu.inst           4993                       # number of overall hits
system.l2cache.overall_hits::.cpu.data          46341                       # number of overall hits
system.l2cache.overall_hits::total              51334                       # number of overall hits
system.l2cache.demand_misses::.cpu.inst          3770                       # number of demand (read+write) misses
system.l2cache.demand_misses::.cpu.data        345834                       # number of demand (read+write) misses
system.l2cache.demand_misses::total            349604                       # number of demand (read+write) misses
system.l2cache.overall_misses::.cpu.inst         3770                       # number of overall misses
system.l2cache.overall_misses::.cpu.data       345834                       # number of overall misses
system.l2cache.overall_misses::total           349604                       # number of overall misses
system.l2cache.demand_miss_latency::.cpu.inst    376364000                       # number of demand (read+write) miss cycles
system.l2cache.demand_miss_latency::.cpu.data  33751903000                       # number of demand (read+write) miss cycles
system.l2cache.demand_miss_latency::total  34128267000                       # number of demand (read+write) miss cycles
system.l2cache.overall_miss_latency::.cpu.inst    376364000                       # number of overall miss cycles
system.l2cache.overall_miss_latency::.cpu.data  33751903000                       # number of overall miss cycles
system.l2cache.overall_miss_latency::total  34128267000                       # number of overall miss cycles
system.l2cache.demand_accesses::.cpu.inst         8763                       # number of demand (read+write) accesses
system.l2cache.demand_accesses::.cpu.data       392175                       # number of demand (read+write) accesses
system.l2cache.demand_accesses::total          400938                       # number of demand (read+write) accesses
system.l2cache.overall_accesses::.cpu.inst         8763                       # number of overall (read+write) accesses
system.l2cache.overall_accesses::.cpu.data       392175                       # number of overall (read+write) accesses
system.l2cache.overall_accesses::total         400938                       # number of overall (read+write) accesses
system.l2cache.demand_miss_rate::.cpu.inst     0.430218                       # miss rate for demand accesses
system.l2cache.demand_miss_rate::.cpu.data     0.881836                       # miss rate for demand accesses
system.l2cache.demand_miss_rate::total       0.871965                       # miss rate for demand accesses
system.l2cache.overall_miss_rate::.cpu.inst     0.430218                       # miss rate for overall accesses
system.l2cache.overall_miss_rate::.cpu.data     0.881836                       # miss rate for overall accesses
system.l2cache.overall_miss_rate::total      0.871965                       # miss rate for overall accesses
system.l2cache.demand_avg_miss_latency::.cpu.inst 99831.299735                       # average overall miss latency
system.l2cache.demand_avg_miss_latency::.cpu.data 97595.675960                       # average overall miss latency
system.l2cache.demand_avg_miss_latency::total 97619.784099                       # average overall miss latency
system.l2cache.overall_avg_miss_latency::.cpu.inst 99831.299735                       # average overall miss latency
system.l2cache.overall_avg_miss_latency::.cpu.data 97595.675960                       # average overall miss latency
system.l2cache.overall_avg_miss_latency::total 97619.784099                       # average overall miss latency
system.l2cache.blocked_cycles::no_mshrs             0                       # number of cycles access was blocked
system.l2cache.blocked_cycles::no_targets            0                       # number of cycles access was blocked
system.l2cache.blocked::no_mshrs                    0                       # number of cycles access was blocked
system.l2cache.blocked::no_targets                  0                       # number of cycles access was blocked
system.l2cache.avg_blocked_cycles::no_mshrs          nan                       # average number of cycles each access was blocked
system.l2cache.avg_blocked_cycles::no_targets          nan                       # average number of cycles each access was blocked
system.l2cache.writebacks::.writebacks         172307                       # number of writebacks
system.l2cache.writebacks::total               172307                       # number of writebacks
system.l2cache.demand_mshr_misses::.cpu.inst         3770                       # number of demand (read+write) MSHR misses
system.l2cache.demand_mshr_misses::.cpu.data       345834                       # number of demand (read+write) MSHR misses
system.l2cache.demand_mshr_misses::total       349604                       # number of demand (read+write) MSHR misses
system.l2cache.overall_mshr_misses::.cpu.inst         3770                       # number of overall MSHR misses
system.l2cache.overall_mshr_misses::.cpu.data       345834                       # number of overall MSHR misses
system.l2cache.overall_mshr_misses::total       349604                       # number of overall MSHR misses
system.l2cache.demand_mshr_miss_latency::.cpu.inst    300964000                       # number of demand (read+write) MSHR miss cycles
system.l2cache.demand_mshr_miss_latency::.cpu.data  26835223000                       # number of demand (read+write) MSHR miss cycles
system.l2cache.demand_mshr_miss_latency::total  27136187000                       # number of demand (read+write) MSHR miss cycles
system.l2cache.overall_mshr_miss_latency::.cpu.inst    300964000                       # number of overall MSHR miss cycles
system.l2cache.overall_mshr_miss_latency::.cpu.data  26835223000                       # number of overall MSHR miss cycles
system.l2cache.overall_mshr_miss_latency::total  27136187000                       # number of overall MSHR miss cycles
system.l2cache.demand_mshr_miss_rate::.cpu.inst     0.430218                       # mshr miss rate for demand accesses
system.l2cache.demand_mshr_miss_rate::.cpu.data     0.881836                       # mshr miss rate for demand accesses
system.l2cache.demand_mshr_miss_rate::total     0.871965                       # mshr miss rate for demand accesses
system.l2cache.overall_mshr_miss_rate::.cpu.inst     0.430218                       # mshr miss rate for overall accesses
system.l2cache.overall_mshr_miss_rate::.cpu.data     0.881836                       # mshr miss rate for overall accesses
system.l2cache.overall_mshr_miss_rate::total     0.871965                       # mshr miss rate for overall accesses
system.l2cache.demand_avg_mshr_miss_latency::.cpu.inst 79831.299735                       # average overall mshr miss latency
system.l2cache.demand_avg_mshr_miss_latency::.cpu.data 77595.675960                       # average overall mshr miss latency
system.l2cache.demand_avg_mshr_miss_latency::total 77619.784099                       # average overall mshr miss latency
system.l2cache.overall_avg_mshr_miss_latency::.cpu.inst 79831.299735                       # average overall mshr miss latency
system.l2cache.overall_avg_mshr_miss_latency::.cpu.data 77595.675960                       # average overall mshr miss latency
system.l2cache.overall_avg_mshr_miss_latency::total 77619.784099                       # average overall mshr miss latency
system.l2cache.replacements                    345880                       # number of replacements
system.l2cache.WritebackDirty_hits::.writebacks       214285                       # number of WritebackDirty hits
system.l2cache.WritebackDirty_hits::total       214285                       # number of WritebackDirty hits
system.l2cache.WritebackDirty_accesses::.writebacks       214285                       # number of WritebackDirty accesses(hits+misses)
system.l2cache.WritebackDirty_accesses::total       214285                       # number of WritebackDirty accesses(hits+misses)
system.l2cache.CleanEvict_mshr_misses::.writebacks         1800                       # number of CleanEvict MSHR misses
system.l2cache.CleanEvict_mshr_misses::total         1800                       # number of CleanEvict MSHR misses
system.l2cache.CleanEvict_mshr_miss_rate::.writebacks          inf                       # mshr miss rate for CleanEvict accesses
system.l2cache.CleanEvict_mshr_miss_rate::total          inf                       # mshr miss rate for CleanEvict accesses
system.l2cache.ReadExReq_hits::.cpu.data         6963                       # number of ReadExReq hits
system.l2cache.ReadExReq_hits::total             6963                       # number of ReadExReq hits
system.l2cache.ReadExReq_misses::.cpu.data       112191                       # number of ReadExReq misses
system.l2cache.ReadExReq_misses::total         112191                       # number of ReadExReq misses
system.l2cache.ReadExReq_miss_latency::.cpu.data  11016822000                       # number of ReadExReq miss cycles
system.l2cache.ReadExReq_miss_latency::total  11016822000                       # number of ReadExReq miss cycles
system.l2cache.ReadExReq_accesses::.cpu.data       119154                       # number of ReadExReq accesses(hits+misses)
system.l2cache.ReadExReq_accesses::total       119154                       # number of ReadExReq accesses(hits+misses)
system.l2cache.ReadExReq_miss_rate::.cpu.data     0.941563                       # miss rate for ReadExReq accesses
system.l2cache.ReadExReq_miss_rate::total     0.941563                       # miss rate for ReadExReq accesses
system.l2cache.ReadExReq_avg_miss_latency::.cpu.data 98197.021151                       # average ReadExReq miss latency
system.l2cache.ReadExReq_avg_miss_latency::total 98197.021151                       # average ReadExReq miss latency
system.l2cache.ReadExReq_mshr_misses::.cpu.data       112191                       # number of ReadExReq MSHR misses
system.l2cache.ReadExReq_mshr_misses::total       112191                       # number of ReadExReq MSHR misses
system.l2cache.ReadExReq_mshr_miss_latency::.cpu.data   8773002000                       # number of ReadExReq MSHR miss cycles
system.l2cache.ReadExReq_mshr_miss_latency::total   8773002000                       # number of ReadExReq MSHR miss cycles
system.l2cache.ReadExReq_mshr_miss_rate::.cpu.data     0.941563                       # mshr miss rate for ReadExReq accesses
system.l2cache.ReadExReq_mshr_miss_rate::total     0.941563                       # mshr miss rate for ReadExReq accesses
system.l2cache.ReadExReq_avg_mshr_miss_latency::.cpu.data 78197.021151                       # average ReadExReq mshr miss latency
system.l2cache.ReadExReq_avg_mshr_miss_latency::total 78197.021151                       # average ReadExReq mshr miss latency
system.l2cache.ReadSharedReq_hits::.cpu.inst         4993                       # number of ReadSharedReq hits
system.l2cache.ReadSharedReq_hits::.cpu.data        39378                       # number of ReadSharedReq hits
system.l2cache.ReadSharedReq_hits::total        44371                       # number of ReadSharedReq hits
system.l2cache.ReadSharedReq_misses::.cpu.inst         3770                       # number of ReadSharedReq misses
system.l2cache.ReadSharedReq_misses::.cpu.data       233643                       # number of ReadSharedReq misses
system.l2cache.ReadSharedReq_misses::total       237413                       # number of ReadSharedReq misses
system.l2cache.ReadSharedReq_miss_latency::.cpu.inst    376364000                       # number of ReadSharedReq miss cycles
system.l2cache.ReadSharedReq_miss_latency::.cpu.data  22735081000                       # number of ReadSharedReq miss cycles
system.l2cache.ReadSharedReq_miss_latency::total  23111445000                       # number of ReadSharedReq miss cycles
system.l2cache.ReadSharedReq_accesses::.cpu.inst         8763                       # number of ReadSharedReq accesses(hits+misses)
system.l2cache.ReadSharedReq_accesses::.cpu.data       273021                       # number of ReadSharedReq accesses(hits+misses)
system.l2cache.ReadSharedReq_accesses::total       281784                       # number of ReadSharedReq accesses(hits+misses)
system.l2cache.ReadSharedReq_miss_rate::.cpu.inst     0.430218                       # miss rate for ReadSharedReq accesses
system.l2cache.ReadSharedReq_miss_rate::.cpu.data     0.855769                       # miss rate for ReadSharedReq accesses
system.l2cache.ReadSharedReq_miss_rate::total     0.842535                       # miss rate for ReadSharedReq accesses
system.l2cache.ReadSharedReq_avg_miss_latency::.cpu.inst 99831.299735                       # average ReadSharedReq miss latency
system.l2cache.ReadSharedReq_avg_miss_latency::.cpu.data 97306.921243                       # average ReadSharedReq miss latency
system.l2cache.ReadSharedReq_avg_miss_latency::total 97347.007114                       # average ReadSharedReq miss latency
system.l2cache.ReadSharedReq_mshr_misses::.cpu.inst         3770                       # number of ReadSharedReq MSHR misses
system.l2cache.ReadSharedReq_mshr_misses::.cpu.data       233643                       # number of ReadSharedReq MSHR misses
system.l2cache.ReadSharedReq_mshr_misses::total       237413                       # number of ReadSharedReq MSHR misses
system.l2cache.ReadSharedReq_mshr_miss_latency::.cpu.inst    300964000                       # number of ReadSharedReq MSHR miss cycles
system.l2cache.ReadSharedReq_mshr_miss_latency::.cpu.data  18062221000                       # number of ReadSharedReq MSHR miss cycles
system.l2cache.ReadSharedReq_mshr_miss_latency::total  18363185000                       # number of ReadSharedReq MSHR miss cycles
system.l2cache.ReadSharedReq_mshr_miss_rate::.cpu.inst     0.430218                       # mshr miss rate for ReadSharedReq accesses
system.l2cache.ReadSharedReq_mshr_miss_rate::.cpu.data     0.855769                       # mshr miss rate for ReadSharedReq accesses
system.l2cache.ReadSharedReq_mshr_miss_rate::total     0.842535                       # mshr miss rate for ReadSharedReq accesses
system.l2cache.ReadSharedReq_avg_mshr_miss_latency::.cpu.inst 79831.299735                       # average ReadSharedReq mshr miss latency
system.l2cache.ReadSharedReq_avg_mshr_miss_latency::.cpu.data 77306.921243                       # average ReadSharedReq mshr miss latency
system.l2cache.ReadSharedReq_avg_mshr_miss_latency::total 77347.007114                       # average ReadSharedReq mshr miss latency
system.l2cache.power_state.pwrStateResidencyTicks::UNDEFINED 127666898000                       # Cumulative time (in ticks) in various power states
system.l2cache.tags.tagsinuse             4083.626408                       # Cycle average of tags in use
system.l2cache.tags.total_refs                 798796                       # Total number of references to valid blocks.
system.l2cache.tags.sampled_refs               349976                       # Sample count of references to valid blocks.
system.l2cache.tags.avg_refs                 2.282431                       # Average number of references to valid blocks.
system.l2cache.tags.warmup_cycle                86000                       # Cycle when the warmup percentage was hit.
system.l2cache.tags.occ_blocks::.writebacks     3.849345                       # Average occupied blocks per requestor
system.l2cache.tags.occ_blocks::.cpu.inst    26.160518                       # Average occupied blocks per requestor
system.l2cache.tags.occ_blocks::.cpu.data  4053.616546                       # Average occupied blocks per requestor
system.l2cache.tags.occ_percent::.writebacks     0.000940                       # Average percentage of cache occupancy
system.l2cache.tags.occ_percent::.cpu.inst     0.006387                       # Average percentage of cache occupancy
system.l2cache.tags.occ_percent::.cpu.data     0.989652                       # Average percentage of cache occupancy
system.l2cache.tags.occ_percent::total       0.996979                       # Average percentage of cache occupancy
system.l2cache.tags.occ_task_id_blocks::1024         4096                       # Occupied blocks per task id
system.l2cache.tags.age_task_id_blocks_1024::0           58                       # Occupied blocks per task id
system.l2cache.tags.age_task_id_blocks_1024::1          129                       # Occupied blocks per task id
system.l2cache.tags.age_task_id_blocks_1024::2         2310                       # Occupied blocks per task id
system.l2cache.tags.age_task_id_blocks_1024::3         1599                       # Occupied blocks per task id
system.l2cache.tags.occ_task_id_percent::1024            1                       # Percentage of cache occupancy per task id
system.l2cache.tags.tag_accesses              6754744                       # Number of tag accesses
system.l2cache.tags.data_accesses             6754744                       # Number of data accesses
system.l2cache.tags.power_state.pwrStateResidencyTicks::UNDEFINED 127666898000                       # Cumulative time (in ticks) in various power states
system.mem_ctrl.avgPriority_.writebacks::samples    172307.00                       # Average QoS priority value for accepted requests
system.mem_ctrl.avgPriority_.cpu.inst::samples      3770.00                       # Average QoS priority value for accepted requests
system.mem_ctrl.avgPriority_.cpu.data::samples    345657.00                       # Average QoS priority value for accepted requests
system.mem_ctrl.priorityMinLatency       0.000000018750                       # per QoS priority minimum request to response latency (s)
system.mem_ctrl.priorityMaxLatency       0.005476794500                       # per QoS priority maximum request to response latency (s)
system.mem_ctrl.numReadWriteTurnArounds          9722                       # Number of turnarounds from READ to WRITE
system.mem_ctrl.numWriteReadTurnArounds          9722                       # Number of turnarounds from WRITE to READ
system.mem_ctrl.numStayReadState               901078                       # Number of times bus staying in READ state
system.mem_ctrl.numStayWriteState              162772                       # Number of times bus staying in WRITE state
system.mem_ctrl.readReqs                       349604                       # Number of read requests accepted
system.mem_ctrl.writeReqs                      172307                       # Number of write requests accepted
system.mem_ctrl.readBursts                     349604                       # Number of controller read bursts, including those serviced by the write queue
system.mem_ctrl.writeBursts                    172307                       # Number of controller write bursts, including those merged in the write queue
system.mem_ctrl.servicedByWrQ                     177                       # Number of controller read bursts serviced by the write queue
system.mem_ctrl.mergedWrBursts                      0                       # Number of controller write bursts merged with an existing one
system.mem_ctrl.neitherReadNorWriteReqs             0                       # Number of requests that are neither read nor write
system.mem_ctrl.avgRdQLen                        1.00                       # Average read queue length when enqueuing
system.mem_ctrl.avgWrQLen                       24.63                       # Average write queue length when enqueuing
system.mem_ctrl.numRdRetry                          0                       # Number of times read queue was full causing retry
system.mem_ctrl.numWrRetry                          0                       # Number of times write queue was full causing retry
system.mem_ctrl.readPktSize::0                      0                       # Read request sizes (log2)
system.mem_ctrl.readPktSize::1                      0                       # Read request sizes (log2)
system.mem_ctrl.readPktSize::2                      0                       # Read request sizes (log2)
system.mem_ctrl.readPktSize::3                      0                       # Read request sizes (log2)
system.mem_ctrl.readPktSize::4                      0                       # Read request sizes (log2)
system.mem_ctrl.readPktSize::5                      0                       # Read request sizes (log2)
system.mem_ctrl.readPktSize::6                 349604                       # Read request sizes (log2)
system.mem_ctrl.writePktSize::0                     0                       # Write request sizes (log2)
system.mem_ctrl.writePktSize::1                     0                       # Write request sizes (log2)
system.mem_ctrl.writePktSize::2                     0                       # Write request sizes (log2)
system.mem_ctrl.writePktSize::3                     0                       # Write request sizes (log2)
system.mem_ctrl.writePktSize::4                     0                       # Write request sizes (log2)
system.mem_ctrl.writePktSize::5                     0                       # Write request sizes (log2)
system.mem_ctrl.writePktSize::6                172307                       # Write request sizes (log2)
system.mem_ctrl.rdQLenPdf::0                   349425                       # What read queue length does an incoming req see
system.mem_ctrl.rdQLenPdf::1                        2                       # What read queue length does an incoming req see
system.mem_ctrl.rdQLenPdf::2                        0                       # What read queue length does an incoming req see
system.mem_ctrl.rdQLenPdf::3                        0                       # What read queue length does an incoming req see
system.mem_ctrl.rdQLenPdf::4                        0                       # What read queue length does an incoming req see
system.mem_ctrl.rdQLenPdf::5                        0                       # What read queue length does an incoming req see
system.mem_ctrl.rdQLenPdf::6                        0                       # What read queue length does an incoming req see
system.mem_ctrl.rdQLenPdf::7                        0                       # What read queue length does an incoming req see
system.mem_ctrl.rdQLenPdf::8                        0                       # What read queue length does an incoming req see
system.mem_ctrl.rdQLenPdf::9                        0                       # What read queue length does an incoming req see
system.mem_ctrl.rdQLenPdf::10                       0                       # What read queue length does an incoming req see
system.mem_ctrl.rdQLenPdf::11                       0                       # What read queue length does an incoming req see
system.mem_ctrl.rdQLenPdf::12                       0                       # What read queue length does an incoming req see
system.mem_ctrl.rdQLenPdf::13                       0                       # What read queue length does an incoming req see
system.mem_ctrl.rdQLenPdf::14                       0                       # What read queue length does an incoming req see
system.mem_ctrl.rdQLenPdf::15                       0                       # What read queue length does an incoming req see
system.mem_ctrl.rdQLenPdf::16                       0                       # What read queue length does an incoming req see
system.mem_ctrl.rdQLenPdf::17                       0                       # What read queue length does an incoming req see
system.mem_ctrl.rdQLenPdf::18                       0                       # What read queue length does an incoming req see
system.mem_ctrl.rdQLenPdf::19                       0                       # What read queue length does an incoming req see
system.mem_ctrl.rdQLenPdf::20                       0                       # What read queue length does an incoming req see
system.mem_ctrl.rdQLenPdf::21                       0                       # What read queue length does an incoming req see
system.mem_ctrl.rdQLenPdf::22                       0                       # What read queue length does an incoming req see
system.mem_ctrl.rdQLenPdf::23                       0                       # What read queue length does an incoming req see
system.mem_ctrl.rdQLenPdf::24                       0                       # What read queue length does an incoming req see
system.mem_ctrl.rdQLenPdf::25                       0                       # What read queue length does an incoming req see
system.mem_ctrl.rdQLenPdf::26                       0                       # What read queue length does an incoming req see
system.mem_ctrl.rdQLenPdf::27                       0                       # What read queue length does an incoming req see
system.mem_ctrl.rdQLenPdf::28                       0                       # What read queue length does an incoming req see
system.mem_ctrl.rdQLenPdf::29                       0                       # What read queue length does an incoming req see
system.mem_ctrl.rdQLenPdf::30                       0                       # What read queue length does an incoming req see
system.mem_ctrl.rdQLenPdf::31                       0                       # What read queue length does an incoming req see
system.mem_ctrl.wrQLenPdf::0                        1                       # What write queue length does an incoming req see
system.mem_ctrl.wrQLenPdf::1                        1                       # What write queue length does an incoming req see
system.mem_ctrl.wrQLenPdf::2                        1                       # What write queue length does an incoming req see
system.mem_ctrl.wrQLenPdf::3                        1                       # What write queue length does an incoming req see
system.mem_ctrl.wrQLenPdf::4                        1                       # What write queue length does an incoming req see
system.mem_ctrl.wrQLenPdf::5                        1                       # What write queue length does an incoming req see
system.mem_ctrl.wrQLenPdf::6                        1                       # What write queue length does an incoming req see
system.mem_ctrl.wrQLenPdf::7                        1                       # What write queue length does an incoming req see
system.mem_ctrl.wrQLenPdf::8                        1                       # What write queue length does an incoming req see
system.mem_ctrl.wrQLenPdf::9                        1                       # What write queue length does an incoming req see
system.mem_ctrl.wrQLenPdf::10                       1                       # What write queue length does an incoming req see
system.mem_ctrl.wrQLenPdf::11                       1                       # What write queue length does an incoming req see
system.mem_ctrl.wrQLenPdf::12                       1                       # What write queue length does an incoming req see
system.mem_ctrl.wrQLenPdf::13                       1                       # What write queue length does an incoming req see
system.mem_ctrl.wrQLenPdf::14                       1                       # What write queue length does an incoming req see
system.mem_ctrl.wrQLenPdf::15                    8300                       # What write queue length does an incoming req see
system.mem_ctrl.wrQLenPdf::16                    8437                       # What write queue length does an incoming req see
system.mem_ctrl.wrQLenPdf::17                    9722                       # What write queue length does an incoming req see
system.mem_ctrl.wrQLenPdf::18                    9722                       # What write queue length does an incoming req see
system.mem_ctrl.wrQLenPdf::19                    9722                       # What write queue length does an incoming req see
system.mem_ctrl.wrQLenPdf::20                    9722                       # What write queue length does an incoming req see
system.mem_ctrl.wrQLenPdf::21                    9723                       # What write queue length does an incoming req see
system.mem_ctrl.wrQLenPdf::22                    9722                       # What write queue length does an incoming req see
system.mem_ctrl.wrQLenPdf::23                    9724                       # What write queue length does an incoming req see
system.mem_ctrl.wrQLenPdf::24                    9722                       # What write queue length does an incoming req see
system.mem_ctrl.wrQLenPdf::25                    9722                       # What write queue length does an incoming req see
system.mem_ctrl.wrQLenPdf::26                    9722                       # What write queue length does an incoming req see
system.mem_ctrl.wrQLenPdf::27                    9722                       # What write queue length does an incoming req see
system.mem_ctrl.wrQLenPdf::28                    9722                       # What write queue length does an incoming req see
system.mem_ctrl.wrQLenPdf::29                    9722                       # What write queue length does an incoming req see
system.mem_ctrl.wrQLenPdf::30                    9722                       # What write queue length does an incoming req see
system.mem_ctrl.wrQLenPdf::31                    9722                       # What write queue length does an incoming req see
system.mem_ctrl.wrQLenPdf::32                    9722                       # What write queue length does an incoming req see
system.mem_ctrl.wrQLenPdf::33                       0                       # What write queue length does an incoming req see
system.mem_ctrl.wrQLenPdf::34                       0                       # What write queue length does an incoming req see
system.mem_ctrl.wrQLenPdf::35                       0                       # What write queue length does an incoming req see
system.mem_ctrl.wrQLenPdf::36                       0                       # What write queue length does an incoming req see
system.mem_ctrl.wrQLenPdf::37                       0                       # What write queue length does an incoming req see
system.mem_ctrl.wrQLenPdf::38                       0                       # What write queue length does an incoming req see
system.mem_ctrl.wrQLenPdf::39                       0                       # What write queue length does an incoming req see
system.mem_ctrl.wrQLenPdf::40                       0                       # What write queue length does an incoming req see
system.mem_ctrl.wrQLenPdf::41                       0                       # What write queue length does an incoming req see
system.mem_ctrl.wrQLenPdf::42                       0                       # What write queue length does an incoming req see
system.mem_ctrl.wrQLenPdf::43                       0                       # What write queue length does an incoming req see
system.mem_ctrl.wrQLenPdf::44                       0                       # What write queue length does an incoming req see
system.mem_ctrl.wrQLenPdf::45                       0                       # What write queue length does an incoming req see
system.mem_ctrl.wrQLenPdf::46                       0                       # What write queue length does an incoming req see
system.mem_ctrl.wrQLenPdf::47                       0                       # What write queue length does an incoming req see
system.mem_ctrl.wrQLenPdf::48                       0                       # What write queue length does an incoming req see
system.mem_ctrl.wrQLenPdf::49                       0                       # What write queue length does an incoming req see
system.mem_ctrl.wrQLenPdf::50                       0                       # What write queue length does an incoming req see
system.mem_ctrl.wrQLenPdf::51                       0                       # What write queue length does an incoming req see
system.mem_ctrl.wrQLenPdf::52                       0                       # What write queue length does an incoming req see
system.mem_ctrl.wrQLenPdf::53                       0                       # What write queue length does an incoming req see
system.mem_ctrl.wrQLenPdf::54                       0                       # What write queue length does an incoming req see
system.mem_ctrl.wrQLenPdf::55                       0                       # What write queue length does an incoming req see
system.mem_ctrl.wrQLenPdf::56                       0                       # What write queue length does an incoming req see
system.mem_ctrl.wrQLenPdf::57                       0                       # What write queue length does an incoming req see
system.mem_ctrl.wrQLenPdf::58                       0                       # What write queue length does an incoming req see
system.mem_ctrl.wrQLenPdf::59                       0                       # What write queue length does an incoming req see
system.mem_ctrl.wrQLenPdf::60                       0                       # What write queue length does an incoming req see
system.mem_ctrl.wrQLenPdf::61                       0                       # What write queue length does an incoming req see
system.mem_ctrl.wrQLenPdf::62                       0                       # What write queue length does an incoming req see
system.mem_ctrl.wrQLenPdf::63                       0                       # What write queue length does an incoming req see
system.mem_ctrl.rdPerTurnAround::samples         9722                       # Reads before turning the bus around for writes
system.mem_ctrl.rdPerTurnAround::mean       35.941473                       # Reads before turning the bus around for writes
system.mem_ctrl.rdPerTurnAround::gmean      29.457986                       # Reads before turning the bus around for writes
system.mem_ctrl.rdPerTurnAround::stdev      63.610365                       # Reads before turning the bus around for writes
system.mem_ctrl.rdPerTurnAround::0-255           9700     99.77%     99.77% # Reads before turning the bus around for writes
system.mem_ctrl.rdPerTurnAround::256-511           12      0.12%     99.90% # Reads before turning the bus around for writes
system.mem_ctrl.rdPerTurnAround::512-767            2      0.02%     99.92% # Reads before turning the bus around for writes
system.mem_ctrl.rdPerTurnAround::768-1023            4      0.04%     99.96% # Reads before turning the bus around for writes
system.mem_ctrl.rdPerTurnAround::1024-1279            1      0.01%     99.97% # Reads before turning the bus around for writes
system.mem_ctrl.rdPerTurnAround::1280-1535            1      0.01%     99.98% # Reads before turning the bus around for writes
system.mem_ctrl.rdPerTurnAround::1536-1791            1      0.01%     99.99% # Reads before turning the bus around for writes
system.mem_ctrl.rdPerTurnAround::4864-5119            1      0.01%    100.00% # Reads before turning the bus around for writes
system.mem_ctrl.rdPerTurnAround::total           9722                       # Reads before turning the bus around for writes
system.mem_ctrl.wrPerTurnAround::samples         9722                       # Writes before turning the bus around for reads
system.mem_ctrl.wrPerTurnAround::mean       17.721662                       # Writes before turning the bus around for reads
system.mem_ctrl.wrPerTurnAround::gmean      17.707740                       # Writes before turning the bus around for reads
system.mem_ctrl.wrPerTurnAround::stdev       0.683156                       # Writes before turning the bus around for reads
system.mem_ctrl.wrPerTurnAround::16              1290     13.27%     13.27% # Writes before turning the bus around for reads
system.mem_ctrl.wrPerTurnAround::17               128      1.32%     14.59% # Writes before turning the bus around for reads
system.mem_ctrl.wrPerTurnAround::18              8302     85.39%     99.98% # Writes before turning the bus around for reads
system.mem_ctrl.wrPerTurnAround::19                 2      0.02%    100.00% # Writes before turning the bus around for reads
system.mem_ctrl.wrPerTurnAround::total           9722                       # Writes before turning the bus around for reads
system.mem_ctrl.bytesReadWrQ                    11328                       # Total number of bytes read from write queue
system.mem_ctrl.bytesReadSys                 22374656                       # Total read bytes from the system interface side
system.mem_ctrl.bytesWrittenSys              11027648                       # Total written bytes from the system interface side
system.mem_ctrl.avgRdBWSys                     175.26                       # Average system read bandwidth in MiByte/s
system.mem_ctrl.avgWrBWSys                      86.38                       # Average system write bandwidth in MiByte/s
system.mem_ctrl.totGap                   127666763000                       # Total gap between requests
system.mem_ctrl.avgGap                      244614.05                       # Average gap between requests
system.mem_ctrl.requestorReadBytes::.cpu.inst       241280                       # Per-requestor bytes read from memory
system.mem_ctrl.requestorReadBytes::.cpu.data     22122048                       # Per-requestor bytes read from memory
system.mem_ctrl.requestorWriteBytes::.writebacks     11026560                       # Per-requestor bytes write to memory
system.mem_ctrl.requestorReadRate::.cpu.inst 1889918.246466676006                       # Per-requestor bytes read from memory rate (Bytes/sec)
system.mem_ctrl.requestorReadRate::.cpu.data 173279435.363111913204                       # Per-requestor bytes read from memory rate (Bytes/sec)
system.mem_ctrl.requestorWriteRate::.writebacks 86369765.168101757765                       # Per-requestor bytes write to memory rate (Bytes/sec)
system.mem_ctrl.requestorReadAccesses::.cpu.inst         3770                       # Per-requestor read serviced memory accesses
system.mem_ctrl.requestorReadAccesses::.cpu.data       345834                       # Per-requestor read serviced memory accesses
system.mem_ctrl.requestorWriteAccesses::.writebacks       172307                       # Per-requestor write serviced memory accesses
system.mem_ctrl.requestorReadTotalLat::.cpu.inst    107423000                       # Per-requestor read total memory access latency
system.mem_ctrl.requestorReadTotalLat::.cpu.data   9101421750                       # Per-requestor read total memory access latency
system.mem_ctrl.requestorWriteTotalLat::.writebacks 3007903306000                       # Per-requestor write total memory access latency
system.mem_ctrl.requestorReadAvgLat::.cpu.inst     28494.16                       # Per-requestor read average memory access latency
system.mem_ctrl.requestorReadAvgLat::.cpu.data     26317.31                       # Per-requestor read average memory access latency
system.mem_ctrl.requestorWriteAvgLat::.writebacks  17456651.82                       # Per-requestor write average memory access latency
system.mem_ctrl.dram.bytes_read::.cpu.inst       241280                       # Number of bytes read from this memory
system.mem_ctrl.dram.bytes_read::.cpu.data     22133376                       # Number of bytes read from this memory
system.mem_ctrl.dram.bytes_read::total       22374656                       # Number of bytes read from this memory
system.mem_ctrl.dram.bytes_inst_read::.cpu.inst       241280                       # Number of instructions bytes read from this memory
system.mem_ctrl.dram.bytes_inst_read::total       241280                       # Number of instructions bytes read from this memory
system.mem_ctrl.dram.bytes_written::.writebacks     11027648                       # Number of bytes written to this memory
system.mem_ctrl.dram.bytes_written::total     11027648                       # Number of bytes written to this memory
system.mem_ctrl.dram.num_reads::.cpu.inst         3770                       # Number of read requests responded to by this memory
system.mem_ctrl.dram.num_reads::.cpu.data       345834                       # Number of read requests responded to by this memory
system.mem_ctrl.dram.num_reads::total          349604                       # Number of read requests responded to by this memory
system.mem_ctrl.dram.num_writes::.writebacks       172307                       # Number of write requests responded to by this memory
system.mem_ctrl.dram.num_writes::total         172307                       # Number of write requests responded to by this memory
system.mem_ctrl.dram.bw_read::.cpu.inst       1889918                       # Total read bandwidth from this memory (bytes/s)
system.mem_ctrl.dram.bw_read::.cpu.data     173368166                       # Total read bandwidth from this memory (bytes/s)
system.mem_ctrl.dram.bw_read::total         175258085                       # Total read bandwidth from this memory (bytes/s)
system.mem_ctrl.dram.bw_inst_read::.cpu.inst      1889918                       # Instruction read bandwidth from this memory (bytes/s)
system.mem_ctrl.dram.bw_inst_read::total      1889918                       # Instruction read bandwidth from this memory (bytes/s)
system.mem_ctrl.dram.bw_write::.writebacks     86378287                       # Write bandwidth from this memory (bytes/s)
system.mem_ctrl.dram.bw_write::total         86378287                       # Write bandwidth from this memory (bytes/s)
system.mem_ctrl.dram.bw_total::.writebacks     86378287                       # Total bandwidth to/from this memory (bytes/s)
system.mem_ctrl.dram.bw_total::.cpu.inst      1889918                       # Total bandwidth to/from this memory (bytes/s)
system.mem_ctrl.dram.bw_total::.cpu.data    173368166                       # Total bandwidth to/from this memory (bytes/s)
system.mem_ctrl.dram.bw_total::total        261636372                       # Total bandwidth to/from this memory (bytes/s)
system.mem_ctrl.dram.readBursts                349427                       # Number of DRAM read bursts
system.mem_ctrl.dram.writeBursts               172290                       # Number of DRAM write bursts
system.mem_ctrl.dram.perBankRdBursts::0         19581                       # Per bank write bursts
system.mem_ctrl.dram.perBankRdBursts::1         20123                       # Per bank write bursts
system.mem_ctrl.dram.perBankRdBursts::2         20887                       # Per bank write bursts
system.mem_ctrl.dram.perBankRdBursts::3         21975                       # Per bank write bursts
system.mem_ctrl.dram.perBankRdBursts::4         23910                       # Per bank write bursts
system.mem_ctrl.dram.perBankRdBursts::5         24071                       # Per bank write bursts
system.mem_ctrl.dram.perBankRdBursts::6         21911                       # Per bank write bursts
system.mem_ctrl.dram.perBankRdBursts::7         21839                       # Per bank write bursts
system.mem_ctrl.dram.perBankRdBursts::8         23190                       # Per bank write bursts
system.mem_ctrl.dram.perBankRdBursts::9         24469                       # Per bank write bursts
system.mem_ctrl.dram.perBankRdBursts::10        22247                       # Per bank write bursts
system.mem_ctrl.dram.perBankRdBursts::11        21917                       # Per bank write bursts
system.mem_ctrl.dram.perBankRdBursts::12        21860                       # Per bank write bursts
system.mem_ctrl.dram.perBankRdBursts::13        21352                       # Per bank write bursts
system.mem_ctrl.dram.perBankRdBursts::14        20319                       # Per bank write bursts
system.mem_ctrl.dram.perBankRdBursts::15        19776                       # Per bank write bursts
system.mem_ctrl.dram.perBankWrBursts::0          9817                       # Per bank write bursts
system.mem_ctrl.dram.perBankWrBursts::1          9965                       # Per bank write bursts
system.mem_ctrl.dram.perBankWrBursts::2          9987                       # Per bank write bursts
system.mem_ctrl.dram.perBankWrBursts::3         10335                       # Per bank write bursts
system.mem_ctrl.dram.perBankWrBursts::4         11221                       # Per bank write bursts
system.mem_ctrl.dram.perBankWrBursts::5         11320                       # Per bank write bursts
system.mem_ctrl.dram.perBankWrBursts::6         10557                       # Per bank write bursts
system.mem_ctrl.dram.perBankWrBursts::7         11031                       # Per bank write bursts
system.mem_ctrl.dram.perBankWrBursts::8         11540                       # Per bank write bursts
system.mem_ctrl.dram.perBankWrBursts::9         12014                       # Per bank write bursts
system.mem_ctrl.dram.perBankWrBursts::10        11185                       # Per bank write bursts
system.mem_ctrl.dram.perBankWrBursts::11        11065                       # Per bank write bursts
system.mem_ctrl.dram.perBankWrBursts::12        10927                       # Per bank write bursts
system.mem_ctrl.dram.perBankWrBursts::13        10848                       # Per bank write bursts
system.mem_ctrl.dram.perBankWrBursts::14        10368                       # Per bank write bursts
system.mem_ctrl.dram.perBankWrBursts::15        10110                       # Per bank write bursts
system.mem_ctrl.dram.totQLat               2657088500                       # Total ticks spent queuing
system.mem_ctrl.dram.totBusLat             1747135000                       # Total ticks spent in databus transfers
system.mem_ctrl.dram.totMemAccLat          9208844750                       # Total ticks spent from burst creation until serviced by the DRAM
system.mem_ctrl.dram.avgQLat                  7604.13                       # Average queueing delay per DRAM burst
system.mem_ctrl.dram.avgBusLat                5000.00                       # Average bus latency per DRAM burst
system.mem_ctrl.dram.avgMemAccLat            26354.13                       # Average memory access latency per DRAM burst
system.mem_ctrl.dram.readRowHits               300064                       # Number of row buffer hits during reads
system.mem_ctrl.dram.writeRowHits              146180                       # Number of row buffer hits during writes
system.mem_ctrl.dram.readRowHitRate             85.87                       # Row buffer hit rate for reads
system.mem_ctrl.dram.writeRowHitRate            84.85                       # Row buffer hit rate for writes
system.mem_ctrl.dram.bytesPerActivate::samples        75467                       # Bytes accessed per row activation
system.mem_ctrl.dram.bytesPerActivate::mean   442.426597                       # Bytes accessed per row activation
system.mem_ctrl.dram.bytesPerActivate::gmean   341.753065                       # Bytes accessed per row activation
system.mem_ctrl.dram.bytesPerActivate::stdev   284.213968                       # Bytes accessed per row activation
system.mem_ctrl.dram.bytesPerActivate::0-127         6839      9.06%      9.06% # Bytes accessed per row activation
system.mem_ctrl.dram.bytesPerActivate::128-255        12947     17.16%     26.22% # Bytes accessed per row activation
system.mem_ctrl.dram.bytesPerActivate::256-383        10366     13.74%     39.95% # Bytes accessed per row activation
system.mem_ctrl.dram.bytesPerActivate::384-511        15758     20.88%     60.83% # Bytes accessed per row activation
system.mem_ctrl.dram.bytesPerActivate::512-639        14478     19.18%     80.02% # Bytes accessed per row activation
system.mem_ctrl.dram.bytesPerActivate::640-767         2855      3.78%     83.80% # Bytes accessed per row activation
system.mem_ctrl.dram.bytesPerActivate::768-895         2294      3.04%     86.84% # Bytes accessed per row activation
system.mem_ctrl.dram.bytesPerActivate::896-1023         1885      2.50%     89.34% # Bytes accessed per row activation
system.mem_ctrl.dram.bytesPerActivate::1024-1151         8045     10.66%    100.00% # Bytes accessed per row activation
system.mem_ctrl.dram.bytesPerActivate::total        75467                       # Bytes accessed per row activation
system.mem_ctrl.dram.bytesRead               22363328                       # Total number of bytes read from DRAM
system.mem_ctrl.dram.bytesWritten            11026560                       # Total number of bytes written to DRAM
system.mem_ctrl.dram.avgRdBW               175.169354                       # Average DRAM read bandwidth in MiBytes/s
system.mem_ctrl.dram.avgWrBW                86.369765                       # Average DRAM write bandwidth in MiBytes/s
system.mem_ctrl.dram.peakBW                  12800.00                       # Theoretical peak bandwidth in MiByte/s
system.mem_ctrl.dram.busUtil                     2.04                       # Data bus utilization in percentage
system.mem_ctrl.dram.busUtilRead                 1.37                       # Data bus utilization in percentage for reads
system.mem_ctrl.dram.busUtilWrite                0.67                       # Data bus utilization in percentage for writes
system.mem_ctrl.dram.pageHitRate                85.53                       # Row buffer hit rate, read and write combined
system.mem_ctrl.dram.power_state.pwrStateResidencyTicks::UNDEFINED 127666898000                       # Cumulative time (in ticks) in various power states
system.mem_ctrl.dram.rank0.actEnergy        271270020                       # Energy for activate commands per rank (pJ)
system.mem_ctrl.dram.rank0.preEnergy        144175845                       # Energy for precharge commands per rank (pJ)
system.mem_ctrl.dram.rank0.readEnergy      1244480580                       # Energy for read commands per rank (pJ)
system.mem_ctrl.dram.rank0.writeEnergy      439696260                       # Energy for write commands per rank (pJ)
system.mem_ctrl.dram.rank0.refreshEnergy 10077637440.000002                       # Energy for refresh commands per rank (pJ)
system.mem_ctrl.dram.rank0.actBackEnergy  43773957120                       # Energy for active background per rank (pJ)
system.mem_ctrl.dram.rank0.preBackEnergy  12161809440                       # Energy for precharge background per rank (pJ)
system.mem_ctrl.dram.rank0.actPowerDownEnergy            0                       # Energy for active power-down per rank (pJ)
system.mem_ctrl.dram.rank0.prePowerDownEnergy            0                       # Energy for precharge power-down per rank (pJ)
system.mem_ctrl.dram.rank0.selfRefreshEnergy            0                       # Energy for self refresh per rank (pJ)
system.mem_ctrl.dram.rank0.totalEnergy    68113026705                       # Total energy per rank (pJ)
system.mem_ctrl.dram.rank0.averagePower    533.521436                       # Core power per rank (mW)
system.mem_ctrl.dram.rank0.totalIdleTime            0                       # Total Idle time Per DRAM Rank
system.mem_ctrl.dram.rank0.pwrStateTime::IDLE  31225662750                       # Time in different power states
system.mem_ctrl.dram.rank0.pwrStateTime::REF   4262960000                       # Time in different power states
system.mem_ctrl.dram.rank0.pwrStateTime::SREF            0                       # Time in different power states
system.mem_ctrl.dram.rank0.pwrStateTime::PRE_PDN            0                       # Time in different power states
system.mem_ctrl.dram.rank0.pwrStateTime::ACT  92178275250                       # Time in different power states
system.mem_ctrl.dram.rank0.pwrStateTime::ACT_PDN            0                       # Time in different power states
system.mem_ctrl.dram.rank1.actEnergy        267607200                       # Energy for activate commands per rank (pJ)
system.mem_ctrl.dram.rank1.preEnergy        142221420                       # Energy for precharge commands per rank (pJ)
system.mem_ctrl.dram.rank1.readEnergy      1250428200                       # Energy for read commands per rank (pJ)
system.mem_ctrl.dram.rank1.writeEnergy      459657540                       # Energy for write commands per rank (pJ)
system.mem_ctrl.dram.rank1.refreshEnergy 10077637440.000002                       # Energy for refresh commands per rank (pJ)
system.mem_ctrl.dram.rank1.actBackEnergy  43474791480                       # Energy for active background per rank (pJ)
system.mem_ctrl.dram.rank1.preBackEnergy  12413738400                       # Energy for precharge background per rank (pJ)
system.mem_ctrl.dram.rank1.actPowerDownEnergy            0                       # Energy for active power-down per rank (pJ)
system.mem_ctrl.dram.rank1.prePowerDownEnergy            0                       # Energy for precharge power-down per rank (pJ)
system.mem_ctrl.dram.rank1.selfRefreshEnergy            0                       # Energy for self refresh per rank (pJ)
system.mem_ctrl.dram.rank1.totalEnergy    68086081680                       # Total energy per rank (pJ)
system.mem_ctrl.dram.rank1.averagePower    533.310378                       # Core power per rank (mW)
system.mem_ctrl.dram.rank1.totalIdleTime            0                       # Total Idle time Per DRAM Rank
system.mem_ctrl.dram.rank1.pwrStateTime::IDLE  31888975000                       # Time in different power states
system.mem_ctrl.dram.rank1.pwrStateTime::REF   4262960000                       # Time in different power states
system.mem_ctrl.dram.rank1.pwrStateTime::SREF            0                       # Time in different power states
system.mem_ctrl.dram.rank1.pwrStateTime::PRE_PDN            0                       # Time in different power states
system.mem_ctrl.dram.rank1.pwrStateTime::ACT  91514963000                       # Time in different power states
system.mem_ctrl.dram.rank1.pwrStateTime::ACT_PDN            0                       # Time in different power states
system.mem_ctrl.power_state.pwrStateResidencyTicks::UNDEFINED 127666898000                       # Cumulative time (in ticks) in various power states
system.membus.trans_dist::ReadResp             237413                       # Transaction distribution
system.membus.trans_dist::WritebackDirty       172307                       # Transaction distribution
system.membus.trans_dist::CleanEvict           173196                       # Transaction distribution
system.membus.trans_dist::ReadExReq            112191                       # Transaction distribution
system.membus.trans_dist::ReadExResp           112191                       # Transaction distribution
system.membus.trans_dist::ReadSharedReq        237413                       # Transaction distribution
system.membus.pkt_count_system.l2cache.mem_side_port::system.mem_ctrl.port      1044711                       # Packet count per connected requestor and responder (bytes)
system.membus.pkt_count_system.l2cache.mem_side_port::total      1044711                       # Packet count per connected requestor and responder (bytes)
system.membus.pkt_count::total                1044711                       # Packet count per connected requestor and responder (bytes)
system.membus.pkt_size_system.l2cache.mem_side_port::system.mem_ctrl.port     33402304                       # Cumulative packet size per connected requestor and responder (bytes)
system.membus.pkt_size_system.l2cache.mem_side_port::total     33402304                       # Cumulative packet size per connected requestor and responder (bytes)
system.membus.pkt_size::total                33402304                       # Cumulative packet size per connected requestor and responder (bytes)
system.membus.snoops                                0                       # Total snoops (count)
system.membus.snoopTraffic                          0                       # Total snoop traffic (bytes)
system.membus.snoop_fanout::samples            349604                       # Request fanout histogram
system.membus.snoop_fanout::mean                    0                       # Request fanout histogram
system.membus.snoop_fanout::stdev                   0                       # Request fanout histogram
system.membus.snoop_fanout::underflows              0      0.00%      0.00% # Request fanout histogram
system.membus.snoop_fanout::0                  349604    100.00%    100.00% # Request fanout histogram
system.membus.snoop_fanout::1                       0      0.00%    100.00% # Request fanout histogram
system.membus.snoop_fanout::overflows               0      0.00%    100.00% # Request fanout histogram
system.membus.snoop_fanout::min_value               0                       # Request fanout histogram
system.membus.snoop_fanout::max_value               0                       # Request fanout histogram
system.membus.snoop_fanout::total              349604                       # Request fanout histogram
system.membus.power_state.pwrStateResidencyTicks::UNDEFINED 127666898000                       # Cumulative time (in ticks) in various power states
system.membus.reqLayer2.occupancy          1384335000                       # Layer occupancy (ticks)
system.membus.reqLayer2.utilization               1.1                       # Layer utilization (%)
system.membus.respLayer0.occupancy         1847327750                       # Layer occupancy (ticks)
system.membus.respLayer0.utilization              1.4                       # Layer utilization (%)

---------- End Simulation Statistics   ----------
