
---------- Begin Simulation Statistics ----------
final_tick                               2320029186000                       # Number of ticks from beginning of simulation (restored from checkpoints and never reset)
host_inst_rate                                 455528                       # Simulator instruction rate (inst/s)
host_mem_usage                                 674440                       # Number of bytes of host memory used
host_op_rate                                   667394                       # Simulator op (including micro ops) rate (op/s)
host_seconds                                  1155.10                       # Real time elapsed on the host
host_tick_rate                             2008516879                       # Simulator tick rate (ticks/s)
sim_freq                                 1000000000000                       # Frequency of simulated ticks
sim_insts                                   526177739                       # Number of instructions simulated
sim_ops                                     770903828                       # Number of ops (including micro ops) simulated
sim_seconds                                  2.320029                       # Number of seconds simulated
sim_ticks                                2320029186000                       # Number of ticks simulated
system.cpu.Branches                           3021919                       # Number of branches fetched
system.cpu.committedInsts                   526177739                       # Number of instructions committed
system.cpu.committedOps                     770903828                       # Number of ops (including micro ops) committed
system.cpu.idle_fraction                     0.000000                       # Percentage of idle cycles
system.cpu.not_idle_fraction                 1.000000                       # Percentage of non-idle cycles
system.cpu.numCycles                       2320029186                       # number of cpu cycles simulated
system.cpu.numWorkItemsCompleted                    0                       # number of work items this cpu completed
system.cpu.numWorkItemsStarted                      0                       # number of work items this cpu started
system.cpu.num_busy_cycles               2320029185.999000                       # Number of busy cycles
system.cpu.num_cc_register_reads              8346439                       # number of times the CC registers were read
system.cpu.num_cc_register_writes            12896342                       # number of times the CC registers were written
system.cpu.num_conditional_control_insts      1622649                       # number of instructions that are conditional controls
system.cpu.num_fp_alu_accesses              724171269                       # Number of float alu accesses
system.cpu.num_fp_insts                     724171269                       # number of float instructions
system.cpu.num_fp_register_reads           1031628198                       # number of times the floating registers were read
system.cpu.num_fp_register_writes           638978691                       # number of times the floating registers were written
system.cpu.num_func_calls                     1356008                       # number of times a function call or return occured
system.cpu.num_idle_cycles                   0.001000                       # Number of idle cycles
system.cpu.num_int_alu_accesses             281644002                       # Number of integer alu accesses
system.cpu.num_int_insts                    281644002                       # number of integer instructions
system.cpu.num_int_register_reads           783870340                       # number of times the integer registers were read
system.cpu.num_int_register_writes           35235604                       # number of times the integer registers were written
system.cpu.num_load_insts                   151055065                       # Number of load instructions
system.cpu.num_mem_refs                     244655501                       # number of memory refs
system.cpu.num_store_insts                   93600436                       # Number of store instructions
system.cpu.num_vec_alu_accesses                     0                       # Number of vector alu accesses
system.cpu.num_vec_insts                            0                       # number of vector instructions
system.cpu.num_vec_register_reads                   0                       # number of times the vector registers were read
system.cpu.num_vec_register_writes                  0                       # number of times the vector registers were written
system.cpu.op_class::No_OpClass                122349      0.02%      0.02% # Class of executed instruction
system.cpu.op_class::IntAlu                 156847938     20.35%     20.36% # Class of executed instruction
system.cpu.op_class::IntMult                    38310      0.00%     20.37% # Class of executed instruction
system.cpu.op_class::IntDiv                       574      0.00%     20.37% # Class of executed instruction
system.cpu.op_class::FloatAdd               129162355     16.75%     37.12% # Class of executed instruction
system.cpu.op_class::FloatCmp                       0      0.00%     37.12% # Class of executed instruction
system.cpu.op_class::FloatCvt                       0      0.00%     37.12% # Class of executed instruction
system.cpu.op_class::FloatMult                      0      0.00%     37.12% # Class of executed instruction
system.cpu.op_class::FloatMultAcc                   0      0.00%     37.12% # Class of executed instruction
system.cpu.op_class::FloatDiv                       0      0.00%     37.12% # Class of executed instruction
system.cpu.op_class::FloatMisc                      0      0.00%     37.12% # Class of executed instruction
system.cpu.op_class::FloatSqrt                      0      0.00%     37.12% # Class of executed instruction
system.cpu.op_class::SimdAdd                      104      0.00%     37.12% # Class of executed instruction
system.cpu.op_class::SimdAddAcc                     0      0.00%     37.12% # Class of executed instruction
system.cpu.op_class::SimdAlu                 13572619      1.76%     38.88% # Class of executed instruction
system.cpu.op_class::SimdCmp                       18      0.00%     38.88% # Class of executed instruction
system.cpu.op_class::SimdCvt                     1518      0.00%     38.88% # Class of executed instruction
system.cpu.op_class::SimdMisc                   18290      0.00%     38.88% # Class of executed instruction
system.cpu.op_class::SimdMult                       0      0.00%     38.88% # Class of executed instruction
system.cpu.op_class::SimdMultAcc                    0      0.00%     38.88% # Class of executed instruction
system.cpu.op_class::SimdShift                    156      0.00%     38.88% # Class of executed instruction
system.cpu.op_class::SimdShiftAcc                   0      0.00%     38.88% # Class of executed instruction
system.cpu.op_class::SimdDiv                        0      0.00%     38.88% # Class of executed instruction
system.cpu.op_class::SimdSqrt                       0      0.00%     38.88% # Class of executed instruction
system.cpu.op_class::SimdFloatAdd           100487583     13.04%     51.92% # Class of executed instruction
system.cpu.op_class::SimdFloatAlu                   0      0.00%     51.92% # Class of executed instruction
system.cpu.op_class::SimdFloatCmp                   0      0.00%     51.92% # Class of executed instruction
system.cpu.op_class::SimdFloatCvt               11622      0.00%     51.92% # Class of executed instruction
system.cpu.op_class::SimdFloatDiv             1355195      0.18%     52.10% # Class of executed instruction
system.cpu.op_class::SimdFloatMisc                  0      0.00%     52.10% # Class of executed instruction
system.cpu.op_class::SimdFloatMult          124629795     16.17%     68.26% # Class of executed instruction
system.cpu.op_class::SimdFloatMultAcc               0      0.00%     68.26% # Class of executed instruction
system.cpu.op_class::SimdFloatSqrt                 10      0.00%     68.26% # Class of executed instruction
system.cpu.op_class::SimdReduceAdd                  0      0.00%     68.26% # Class of executed instruction
system.cpu.op_class::SimdReduceAlu                  0      0.00%     68.26% # Class of executed instruction
system.cpu.op_class::SimdReduceCmp                  0      0.00%     68.26% # Class of executed instruction
system.cpu.op_class::SimdFloatReduceAdd             0      0.00%     68.26% # Class of executed instruction
system.cpu.op_class::SimdFloatReduceCmp             0      0.00%     68.26% # Class of executed instruction
system.cpu.op_class::SimdAes                        0      0.00%     68.26% # Class of executed instruction
system.cpu.op_class::SimdAesMix                     0      0.00%     68.26% # Class of executed instruction
system.cpu.op_class::SimdSha1Hash                   0      0.00%     68.26% # Class of executed instruction
system.cpu.op_class::SimdSha1Hash2                  0      0.00%     68.26% # Class of executed instruction
system.cpu.op_class::SimdSha256Hash                 0      0.00%     68.26% # Class of executed instruction
system.cpu.op_class::SimdSha256Hash2                0      0.00%     68.26% # Class of executed instruction
system.cpu.op_class::SimdShaSigma2                  0      0.00%     68.26% # Class of executed instruction
system.cpu.op_class::SimdShaSigma3                  0      0.00%     68.26% # Class of executed instruction
system.cpu.op_class::SimdPredAlu                    0      0.00%     68.26% # Class of executed instruction
system.cpu.op_class::MemRead                  1225922      0.16%     68.42% # Class of executed instruction
system.cpu.op_class::MemWrite                 8411221      1.09%     69.51% # Class of executed instruction
system.cpu.op_class::FloatMemRead           149829143     19.44%     88.95% # Class of executed instruction
system.cpu.op_class::FloatMemWrite           85189215     11.05%    100.00% # Class of executed instruction
system.cpu.op_class::IprAccess                      0      0.00%    100.00% # Class of executed instruction
system.cpu.op_class::InstPrefetch                   0      0.00%    100.00% # Class of executed instruction
system.cpu.op_class::total                  770903937                       # Class of executed instruction
system.cpu.workload.numSyscalls                    85                       # Number of system calls
system.l2bus.snoop_filter.hit_multi_requests            0                       # Number of requests hitting in the snoop filter with multiple (>1) holders of the requested data.
system.l2bus.snoop_filter.hit_multi_snoops            0                       # Number of snoops hitting in the snoop filter with multiple (>1) holders of the requested data.
system.l2bus.snoop_filter.hit_single_requests      4513455                       # Number of requests hitting in the snoop filter with a single holder of the requested data.
system.l2bus.snoop_filter.hit_single_snoops        26062                       # Number of snoops hitting in the snoop filter with a single holder of the requested data.
system.l2bus.snoop_filter.tot_requests        9028190                       # Total number of requests made to the snoop filter.
system.l2bus.snoop_filter.tot_snoops            26062                       # Total number of snoops made to the snoop filter.
system.membus.snoop_filter.hit_multi_requests            0                       # Number of requests hitting in the snoop filter with multiple (>1) holders of the requested data.
system.membus.snoop_filter.hit_multi_snoops            0                       # Number of snoops hitting in the snoop filter with multiple (>1) holders of the requested data.
system.membus.snoop_filter.hit_single_requests       412014                       # Number of requests hitting in the snoop filter with a single holder of the requested data.
system.membus.snoop_filter.hit_single_snoops            0                       # Number of snoops hitting in the snoop filter with a single holder of the requested data.
system.membus.snoop_filter.tot_requests        828164                       # Total number of requests made to the snoop filter.
system.membus.snoop_filter.tot_snoops               0                       # Total number of snoops made to the snoop filter.
system.clk_domain.clock                          1000                       # Clock period in ticks
system.clk_domain.voltage_domain.voltage            1                       # Voltage in Volts
system.cpu.dcache.demand_hits::.cpu.data    243143527                       # number of demand (read+write) hits
system.cpu.dcache.demand_hits::total        243143527                       # number of demand (read+write) hits
system.cpu.dcache.overall_hits::.cpu.data    243143527                       # number of overall hits
system.cpu.dcache.overall_hits::total       243143527                       # number of overall hits
system.cpu.dcache.demand_misses::.cpu.data      1512015                       # number of demand (read+write) misses
system.cpu.dcache.demand_misses::total        1512015                       # number of demand (read+write) misses
system.cpu.dcache.overall_misses::.cpu.data      1512015                       # number of overall misses
system.cpu.dcache.overall_misses::total       1512015                       # number of overall misses
system.cpu.dcache.demand_miss_latency::.cpu.data  67607227000                       # number of demand (read+write) miss cycles
system.cpu.dcache.demand_miss_latency::total  67607227000                       # number of demand (read+write) miss cycles
system.cpu.dcache.overall_miss_latency::.cpu.data  67607227000                       # number of overall miss cycles
system.cpu.dcache.overall_miss_latency::total  67607227000                       # number of overall miss cycles
system.cpu.dcache.demand_accesses::.cpu.data    244655542                       # number of demand (read+write) accesses
system.cpu.dcache.demand_accesses::total    244655542                       # number of demand (read+write) accesses
system.cpu.dcache.overall_accesses::.cpu.data    244655542                       # number of overall (read+write) accesses
system.cpu.dcache.overall_accesses::total    244655542                       # number of overall (read+write) accesses
system.cpu.dcache.demand_miss_rate::.cpu.data     0.006180                       # miss rate for demand accesses
system.cpu.dcache.demand_miss_rate::total     0.006180                       # miss rate for demand accesses
system.cpu.dcache.overall_miss_rate::.cpu.data     0.006180                       # miss rate for overall accesses
system.cpu.dcache.overall_miss_rate::total     0.006180                       # miss rate for overall accesses
system.cpu.dcache.demand_avg_miss_latency::.cpu.data 44713.330886                       # average overall miss latency
system.cpu.dcache.demand_avg_miss_latency::total 44713.330886                       # average overall miss latency
system.cpu.dcache.overall_avg_miss_latency::.cpu.data 44713.330886                       # average overall miss latency
system.cpu.dcache.overall_avg_miss_latency::total 44713.330886                       # average overall miss latency
system.cpu.dcache.blocked_cycles::no_mshrs            0                       # number of cycles access was blocked
system.cpu.dcache.blocked_cycles::no_targets            0                       # number of cycles access was blocked
system.cpu.dcache.blocked::no_mshrs                 0                       # number of cycles access was blocked
system.cpu.dcache.blocked::no_targets               0                       # number of cycles access was blocked
system.cpu.dcache.avg_blocked_cycles::no_mshrs          nan                       # average number of cycles each access was blocked
system.cpu.dcache.avg_blocked_cycles::no_targets          nan                       # average number of cycles each access was blocked
system.cpu.dcache.writebacks::.writebacks       828911                       # number of writebacks
system.cpu.dcache.writebacks::total            828911                       # number of writebacks
system.cpu.dcache.demand_mshr_misses::.cpu.data      1512015                       # number of demand (read+write) MSHR misses
system.cpu.dcache.demand_mshr_misses::total      1512015                       # number of demand (read+write) MSHR misses
system.cpu.dcache.overall_mshr_misses::.cpu.data      1512015                       # number of overall MSHR misses
system.cpu.dcache.overall_mshr_misses::total      1512015                       # number of overall MSHR misses
system.cpu.dcache.demand_mshr_miss_latency::.cpu.data  64583197000                       # number of demand (read+write) MSHR miss cycles
system.cpu.dcache.demand_mshr_miss_latency::total  64583197000                       # number of demand (read+write) MSHR miss cycles
system.cpu.dcache.overall_mshr_miss_latency::.cpu.data  64583197000                       # number of overall MSHR miss cycles
system.cpu.dcache.overall_mshr_miss_latency::total  64583197000                       # number of overall MSHR miss cycles
system.cpu.dcache.demand_mshr_miss_rate::.cpu.data     0.006180                       # mshr miss rate for demand accesses
system.cpu.dcache.demand_mshr_miss_rate::total     0.006180                       # mshr miss rate for demand accesses
system.cpu.dcache.overall_mshr_miss_rate::.cpu.data     0.006180                       # mshr miss rate for overall accesses
system.cpu.dcache.overall_mshr_miss_rate::total     0.006180                       # mshr miss rate for overall accesses
system.cpu.dcache.demand_avg_mshr_miss_latency::.cpu.data 42713.330886                       # average overall mshr miss latency
system.cpu.dcache.demand_avg_mshr_miss_latency::total 42713.330886                       # average overall mshr miss latency
system.cpu.dcache.overall_avg_mshr_miss_latency::.cpu.data 42713.330886                       # average overall mshr miss latency
system.cpu.dcache.overall_avg_mshr_miss_latency::total 42713.330886                       # average overall mshr miss latency
system.cpu.dcache.replacements                1510991                       # number of replacements
system.cpu.dcache.ReadReq_hits::.cpu.data    149747006                       # number of ReadReq hits
system.cpu.dcache.ReadReq_hits::total       149747006                       # number of ReadReq hits
system.cpu.dcache.ReadReq_misses::.cpu.data      1308087                       # number of ReadReq misses
system.cpu.dcache.ReadReq_misses::total       1308087                       # number of ReadReq misses
system.cpu.dcache.ReadReq_miss_latency::.cpu.data  53673266000                       # number of ReadReq miss cycles
system.cpu.dcache.ReadReq_miss_latency::total  53673266000                       # number of ReadReq miss cycles
system.cpu.dcache.ReadReq_accesses::.cpu.data    151055093                       # number of ReadReq accesses(hits+misses)
system.cpu.dcache.ReadReq_accesses::total    151055093                       # number of ReadReq accesses(hits+misses)
system.cpu.dcache.ReadReq_miss_rate::.cpu.data     0.008660                       # miss rate for ReadReq accesses
system.cpu.dcache.ReadReq_miss_rate::total     0.008660                       # miss rate for ReadReq accesses
system.cpu.dcache.ReadReq_avg_miss_latency::.cpu.data 41031.877849                       # average ReadReq miss latency
system.cpu.dcache.ReadReq_avg_miss_latency::total 41031.877849                       # average ReadReq miss latency
system.cpu.dcache.ReadReq_mshr_misses::.cpu.data      1308087                       # number of ReadReq MSHR misses
system.cpu.dcache.ReadReq_mshr_misses::total      1308087                       # number of ReadReq MSHR misses
system.cpu.dcache.ReadReq_mshr_miss_latency::.cpu.data  51057092000                       # number of ReadReq MSHR miss cycles
system.cpu.dcache.ReadReq_mshr_miss_latency::total  51057092000                       # number of ReadReq MSHR miss cycles
system.cpu.dcache.ReadReq_mshr_miss_rate::.cpu.data     0.008660                       # mshr miss rate for ReadReq accesses
system.cpu.dcache.ReadReq_mshr_miss_rate::total     0.008660                       # mshr miss rate for ReadReq accesses
system.cpu.dcache.ReadReq_avg_mshr_miss_latency::.cpu.data 39031.877849                       # average ReadReq mshr miss latency
system.cpu.dcache.ReadReq_avg_mshr_miss_latency::total 39031.877849                       # average ReadReq mshr miss latency
system.cpu.dcache.WriteReq_hits::.cpu.data     93396521                       # number of WriteReq hits
system.cpu.dcache.WriteReq_hits::total       93396521                       # number of WriteReq hits
system.cpu.dcache.WriteReq_misses::.cpu.data       203928                       # number of WriteReq misses
system.cpu.dcache.WriteReq_misses::total       203928                       # number of WriteReq misses
system.cpu.dcache.WriteReq_miss_latency::.cpu.data  13933961000                       # number of WriteReq miss cycles
system.cpu.dcache.WriteReq_miss_latency::total  13933961000                       # number of WriteReq miss cycles
system.cpu.dcache.WriteReq_accesses::.cpu.data     93600449                       # number of WriteReq accesses(hits+misses)
system.cpu.dcache.WriteReq_accesses::total     93600449                       # number of WriteReq accesses(hits+misses)
system.cpu.dcache.WriteReq_miss_rate::.cpu.data     0.002179                       # miss rate for WriteReq accesses
system.cpu.dcache.WriteReq_miss_rate::total     0.002179                       # miss rate for WriteReq accesses
system.cpu.dcache.WriteReq_avg_miss_latency::.cpu.data 68327.846103                       # average WriteReq miss latency
system.cpu.dcache.WriteReq_avg_miss_latency::total 68327.846103                       # average WriteReq miss latency
system.cpu.dcache.WriteReq_mshr_misses::.cpu.data       203928                       # number of WriteReq MSHR misses
system.cpu.dcache.WriteReq_mshr_misses::total       203928                       # number of WriteReq MSHR misses
system.cpu.dcache.WriteReq_mshr_miss_latency::.cpu.data  13526105000                       # number of WriteReq MSHR miss cycles
system.cpu.dcache.WriteReq_mshr_miss_latency::total  13526105000                       # number of WriteReq MSHR miss cycles
system.cpu.dcache.WriteReq_mshr_miss_rate::.cpu.data     0.002179                       # mshr miss rate for WriteReq accesses
system.cpu.dcache.WriteReq_mshr_miss_rate::total     0.002179                       # mshr miss rate for WriteReq accesses
system.cpu.dcache.WriteReq_avg_mshr_miss_latency::.cpu.data 66327.846103                       # average WriteReq mshr miss latency
system.cpu.dcache.WriteReq_avg_mshr_miss_latency::total 66327.846103                       # average WriteReq mshr miss latency
system.cpu.dcache.power_state.pwrStateResidencyTicks::UNDEFINED 2320029186000                       # Cumulative time (in ticks) in various power states
system.cpu.dcache.tags.tagsinuse          1023.846133                       # Cycle average of tags in use
system.cpu.dcache.tags.total_refs           244655542                       # Total number of references to valid blocks.
system.cpu.dcache.tags.sampled_refs           1512015                       # Sample count of references to valid blocks.
system.cpu.dcache.tags.avg_refs            161.807616                       # Average number of references to valid blocks.
system.cpu.dcache.tags.warmup_cycle            224000                       # Cycle when the warmup percentage was hit.
system.cpu.dcache.tags.occ_blocks::.cpu.data  1023.846133                       # Average occupied blocks per requestor
system.cpu.dcache.tags.occ_percent::.cpu.data     0.999850                       # Average percentage of cache occupancy
system.cpu.dcache.tags.occ_percent::total     0.999850                       # Average percentage of cache occupancy
system.cpu.dcache.tags.occ_task_id_blocks::1024         1024                       # Occupied blocks per task id
system.cpu.dcache.tags.age_task_id_blocks_1024::0           28                       # Occupied blocks per task id
system.cpu.dcache.tags.age_task_id_blocks_1024::1           83                       # Occupied blocks per task id
system.cpu.dcache.tags.age_task_id_blocks_1024::2          498                       # Occupied blocks per task id
system.cpu.dcache.tags.age_task_id_blocks_1024::3          415                       # Occupied blocks per task id
system.cpu.dcache.tags.occ_task_id_percent::1024            1                       # Percentage of cache occupancy per task id
system.cpu.dcache.tags.tag_accesses         490823099                       # Number of tag accesses
system.cpu.dcache.tags.data_accesses        490823099                       # Number of data accesses
system.cpu.dcache.tags.power_state.pwrStateResidencyTicks::UNDEFINED 2320029186000                       # Cumulative time (in ticks) in various power states
system.cpu.dtb.rdAccesses                   151055094                       # TLB accesses on read requests
system.cpu.dtb.wrAccesses                    93600472                       # TLB accesses on write requests
system.cpu.dtb.rdMisses                          4202                       # TLB misses on read requests
system.cpu.dtb.wrMisses                          2551                       # TLB misses on write requests
system.cpu.dtb.walker.power_state.pwrStateResidencyTicks::UNDEFINED 2320029186000                       # Cumulative time (in ticks) in various power states
system.cpu.icache.demand_hits::.cpu.inst    841887876                       # number of demand (read+write) hits
system.cpu.icache.demand_hits::total        841887876                       # number of demand (read+write) hits
system.cpu.icache.overall_hits::.cpu.inst    841887876                       # number of overall hits
system.cpu.icache.overall_hits::total       841887876                       # number of overall hits
system.cpu.icache.demand_misses::.cpu.inst      3002720                       # number of demand (read+write) misses
system.cpu.icache.demand_misses::total        3002720                       # number of demand (read+write) misses
system.cpu.icache.overall_misses::.cpu.inst      3002720                       # number of overall misses
system.cpu.icache.overall_misses::total       3002720                       # number of overall misses
system.cpu.icache.demand_miss_latency::.cpu.inst  82359221000                       # number of demand (read+write) miss cycles
system.cpu.icache.demand_miss_latency::total  82359221000                       # number of demand (read+write) miss cycles
system.cpu.icache.overall_miss_latency::.cpu.inst  82359221000                       # number of overall miss cycles
system.cpu.icache.overall_miss_latency::total  82359221000                       # number of overall miss cycles
system.cpu.icache.demand_accesses::.cpu.inst    844890596                       # number of demand (read+write) accesses
system.cpu.icache.demand_accesses::total    844890596                       # number of demand (read+write) accesses
system.cpu.icache.overall_accesses::.cpu.inst    844890596                       # number of overall (read+write) accesses
system.cpu.icache.overall_accesses::total    844890596                       # number of overall (read+write) accesses
system.cpu.icache.demand_miss_rate::.cpu.inst     0.003554                       # miss rate for demand accesses
system.cpu.icache.demand_miss_rate::total     0.003554                       # miss rate for demand accesses
system.cpu.icache.overall_miss_rate::.cpu.inst     0.003554                       # miss rate for overall accesses
system.cpu.icache.overall_miss_rate::total     0.003554                       # miss rate for overall accesses
system.cpu.icache.demand_avg_miss_latency::.cpu.inst 27428.205427                       # average overall miss latency
system.cpu.icache.demand_avg_miss_latency::total 27428.205427                       # average overall miss latency
system.cpu.icache.overall_avg_miss_latency::.cpu.inst 27428.205427                       # average overall miss latency
system.cpu.icache.overall_avg_miss_latency::total 27428.205427                       # average overall miss latency
system.cpu.icache.blocked_cycles::no_mshrs            0                       # number of cycles access was blocked
system.cpu.icache.blocked_cycles::no_targets            0                       # number of cycles access was blocked
system.cpu.icache.blocked::no_mshrs                 0                       # number of cycles access was blocked
system.cpu.icache.blocked::no_targets               0                       # number of cycles access was blocked
system.cpu.icache.avg_blocked_cycles::no_mshrs          nan                       # average number of cycles each access was blocked
system.cpu.icache.avg_blocked_cycles::no_targets          nan                       # average number of cycles each access was blocked
system.cpu.icache.demand_mshr_misses::.cpu.inst      3002720                       # number of demand (read+write) MSHR misses
system.cpu.icache.demand_mshr_misses::total      3002720                       # number of demand (read+write) MSHR misses
system.cpu.icache.overall_mshr_misses::.cpu.inst      3002720                       # number of overall MSHR misses
system.cpu.icache.overall_mshr_misses::total      3002720                       # number of overall MSHR misses
system.cpu.icache.demand_mshr_miss_latency::.cpu.inst  76353781000                       # number of demand (read+write) MSHR miss cycles
system.cpu.icache.demand_mshr_miss_latency::total  76353781000                       # number of demand (read+write) MSHR miss cycles
system.cpu.icache.overall_mshr_miss_latency::.cpu.inst  76353781000                       # number of overall MSHR miss cycles
system.cpu.icache.overall_mshr_miss_latency::total  76353781000                       # number of overall MSHR miss cycles
system.cpu.icache.demand_mshr_miss_rate::.cpu.inst     0.003554                       # mshr miss rate for demand accesses
system.cpu.icache.demand_mshr_miss_rate::total     0.003554                       # mshr miss rate for demand accesses
system.cpu.icache.overall_mshr_miss_rate::.cpu.inst     0.003554                       # mshr miss rate for overall accesses
system.cpu.icache.overall_mshr_miss_rate::total     0.003554                       # mshr miss rate for overall accesses
system.cpu.icache.demand_avg_mshr_miss_latency::.cpu.inst 25428.205427                       # average overall mshr miss latency
system.cpu.icache.demand_avg_mshr_miss_latency::total 25428.205427                       # average overall mshr miss latency
system.cpu.icache.overall_avg_mshr_miss_latency::.cpu.inst 25428.205427                       # average overall mshr miss latency
system.cpu.icache.overall_avg_mshr_miss_latency::total 25428.205427                       # average overall mshr miss latency
system.cpu.icache.replacements                3002464                       # number of replacements
system.cpu.icache.ReadReq_hits::.cpu.inst    841887876                       # number of ReadReq hits
system.cpu.icache.ReadReq_hits::total       841887876                       # number of ReadReq hits
system.cpu.icache.ReadReq_misses::.cpu.inst      3002720                       # number of ReadReq misses
system.cpu.icache.ReadReq_misses::total       3002720                       # number of ReadReq misses
system.cpu.icache.ReadReq_miss_latency::.cpu.inst  82359221000                       # number of ReadReq miss cycles
system.cpu.icache.ReadReq_miss_latency::total  82359221000                       # number of ReadReq miss cycles
system.cpu.icache.ReadReq_accesses::.cpu.inst    844890596                       # number of ReadReq accesses(hits+misses)
system.cpu.icache.ReadReq_accesses::total    844890596                       # number of ReadReq accesses(hits+misses)
system.cpu.icache.ReadReq_miss_rate::.cpu.inst     0.003554                       # miss rate for ReadReq accesses
system.cpu.icache.ReadReq_miss_rate::total     0.003554                       # miss rate for ReadReq accesses
system.cpu.icache.ReadReq_avg_miss_latency::.cpu.inst 27428.205427                       # average ReadReq miss latency
system.cpu.icache.ReadReq_avg_miss_latency::total 27428.205427                       # average ReadReq miss latency
system.cpu.icache.ReadReq_mshr_misses::.cpu.inst      3002720                       # number of ReadReq MSHR misses
system.cpu.icache.ReadReq_mshr_misses::total      3002720                       # number of ReadReq MSHR misses
system.cpu.icache.ReadReq_mshr_miss_latency::.cpu.inst  76353781000                       # number of ReadReq MSHR miss cycles
system.cpu.icache.ReadReq_mshr_miss_latency::total  76353781000                       # number of ReadReq MSHR miss cycles
system.cpu.icache.ReadReq_mshr_miss_rate::.cpu.inst     0.003554                       # mshr miss rate for ReadReq accesses
system.cpu.icache.ReadReq_mshr_miss_rate::total     0.003554                       # mshr miss rate for ReadReq accesses
system.cpu.icache.ReadReq_avg_mshr_miss_latency::.cpu.inst 25428.205427                       # average ReadReq mshr miss latency
system.cpu.icache.ReadReq_avg_mshr_miss_latency::total 25428.205427                       # average ReadReq mshr miss latency
system.cpu.icache.power_state.pwrStateResidencyTicks::UNDEFINED 2320029186000                       # Cumulative time (in ticks) in various power states
system.cpu.icache.tags.tagsinuse           255.994448                       # Cycle average of tags in use
system.cpu.icache.tags.total_refs           844890596                       # Total number of references to valid blocks.
system.cpu.icache.tags.sampled_refs           3002720                       # Sample count of references to valid blocks.
system.cpu.icache.tags.avg_refs            281.375085                       # Average number of references to valid blocks.
system.cpu.icache.tags.warmup_cycle            107000                       # Cycle when the warmup percentage was hit.
system.cpu.icache.tags.occ_blocks::.cpu.inst   255.994448                       # Average occupied blocks per requestor
system.cpu.icache.tags.occ_percent::.cpu.inst     0.999978                       # Average percentage of cache occupancy
system.cpu.icache.tags.occ_percent::total     0.999978                       # Average percentage of cache occupancy
system.cpu.icache.tags.occ_task_id_blocks::1024          256                       # Occupied blocks per task id
system.cpu.icache.tags.age_task_id_blocks_1024::0           35                       # Occupied blocks per task id
system.cpu.icache.tags.age_task_id_blocks_1024::1          107                       # Occupied blocks per task id
system.cpu.icache.tags.age_task_id_blocks_1024::2          106                       # Occupied blocks per task id
system.cpu.icache.tags.age_task_id_blocks_1024::3            8                       # Occupied blocks per task id
system.cpu.icache.tags.occ_task_id_percent::1024            1                       # Percentage of cache occupancy per task id
system.cpu.icache.tags.tag_accesses        1692783912                       # Number of tag accesses
system.cpu.icache.tags.data_accesses       1692783912                       # Number of data accesses
system.cpu.icache.tags.power_state.pwrStateResidencyTicks::UNDEFINED 2320029186000                       # Cumulative time (in ticks) in various power states
system.cpu.interrupts.clk_domain.clock          16000                       # Clock period in ticks
system.cpu.itb.rdAccesses                           0                       # TLB accesses on read requests
system.cpu.itb.wrAccesses                   844890596                       # TLB accesses on write requests
system.cpu.itb.rdMisses                             0                       # TLB misses on read requests
system.cpu.itb.wrMisses                           158                       # TLB misses on write requests
system.cpu.itb.walker.power_state.pwrStateResidencyTicks::UNDEFINED 2320029186000                       # Cumulative time (in ticks) in various power states
system.cpu.power_state.pwrStateResidencyTicks::ON 2320029186000                       # Cumulative time (in ticks) in various power states
system.cpu.thread_0.numInsts                        0                       # Number of Instructions committed
system.cpu.thread_0.numOps                          0                       # Number of Ops committed
system.cpu.thread_0.numMemRefs                      0                       # Number of Memory References
system.l2bus.trans_dist::ReadResp             4310807                       # Transaction distribution
system.l2bus.trans_dist::WritebackDirty       1026351                       # Transaction distribution
system.l2bus.trans_dist::CleanEvict           3902878                       # Transaction distribution
system.l2bus.trans_dist::ReadExReq             203928                       # Transaction distribution
system.l2bus.trans_dist::ReadExResp            203928                       # Transaction distribution
system.l2bus.trans_dist::ReadSharedReq        4310807                       # Transaction distribution
system.l2bus.pkt_count_system.cpu.icache.mem_side_port::system.l2cache.cpu_side_port      9007904                       # Packet count per connected requestor and responder (bytes)
system.l2bus.pkt_count_system.cpu.dcache.mem_side_port::system.l2cache.cpu_side_port      4535021                       # Packet count per connected requestor and responder (bytes)
system.l2bus.pkt_count::total                13542925                       # Packet count per connected requestor and responder (bytes)
system.l2bus.pkt_size_system.cpu.icache.mem_side_port::system.l2cache.cpu_side_port    192174080                       # Cumulative packet size per connected requestor and responder (bytes)
system.l2bus.pkt_size_system.cpu.dcache.mem_side_port::system.l2cache.cpu_side_port    149819264                       # Cumulative packet size per connected requestor and responder (bytes)
system.l2bus.pkt_size::total                341993344                       # Cumulative packet size per connected requestor and responder (bytes)
system.l2bus.snoops                            415774                       # Total snoops (count)
system.l2bus.snoopTraffic                    12636160                       # Total snoop traffic (bytes)
system.l2bus.snoop_fanout::samples            4930509                       # Request fanout histogram
system.l2bus.snoop_fanout::mean              0.005286                       # Request fanout histogram
system.l2bus.snoop_fanout::stdev             0.072512                       # Request fanout histogram
system.l2bus.snoop_fanout::underflows               0      0.00%      0.00% # Request fanout histogram
system.l2bus.snoop_fanout::0                  4904447     99.47%     99.47% # Request fanout histogram
system.l2bus.snoop_fanout::1                    26062      0.53%    100.00% # Request fanout histogram
system.l2bus.snoop_fanout::2                        0      0.00%    100.00% # Request fanout histogram
system.l2bus.snoop_fanout::overflows                0      0.00%    100.00% # Request fanout histogram
system.l2bus.snoop_fanout::min_value                0                       # Request fanout histogram
system.l2bus.snoop_fanout::max_value                1                       # Request fanout histogram
system.l2bus.snoop_fanout::total              4930509                       # Request fanout histogram
system.l2bus.power_state.pwrStateResidencyTicks::UNDEFINED 2320029186000                       # Cumulative time (in ticks) in various power states
system.l2bus.reqLayer0.occupancy          10686012000                       # Layer occupancy (ticks)
system.l2bus.reqLayer0.utilization                0.5                       # Layer utilization (%)
system.l2bus.respLayer0.occupancy          9008160000                       # Layer occupancy (ticks)
system.l2bus.respLayer0.utilization               0.4                       # Layer utilization (%)
system.l2bus.respLayer1.occupancy          4536045000                       # Layer occupancy (ticks)
system.l2bus.respLayer1.utilization               0.2                       # Layer utilization (%)
system.l2cache.demand_hits::.cpu.inst         2946149                       # number of demand (read+write) hits
system.l2cache.demand_hits::.cpu.data         1152436                       # number of demand (read+write) hits
system.l2cache.demand_hits::total             4098585                       # number of demand (read+write) hits
system.l2cache.overall_hits::.cpu.inst        2946149                       # number of overall hits
system.l2cache.overall_hits::.cpu.data        1152436                       # number of overall hits
system.l2cache.overall_hits::total            4098585                       # number of overall hits
system.l2cache.demand_misses::.cpu.inst         56571                       # number of demand (read+write) misses
system.l2cache.demand_misses::.cpu.data        359579                       # number of demand (read+write) misses
system.l2cache.demand_misses::total            416150                       # number of demand (read+write) misses
system.l2cache.overall_misses::.cpu.inst        56571                       # number of overall misses
system.l2cache.overall_misses::.cpu.data       359579                       # number of overall misses
system.l2cache.overall_misses::total           416150                       # number of overall misses
system.l2cache.demand_miss_latency::.cpu.inst   5475961000                       # number of demand (read+write) miss cycles
system.l2cache.demand_miss_latency::.cpu.data  35840495000                       # number of demand (read+write) miss cycles
system.l2cache.demand_miss_latency::total  41316456000                       # number of demand (read+write) miss cycles
system.l2cache.overall_miss_latency::.cpu.inst   5475961000                       # number of overall miss cycles
system.l2cache.overall_miss_latency::.cpu.data  35840495000                       # number of overall miss cycles
system.l2cache.overall_miss_latency::total  41316456000                       # number of overall miss cycles
system.l2cache.demand_accesses::.cpu.inst      3002720                       # number of demand (read+write) accesses
system.l2cache.demand_accesses::.cpu.data      1512015                       # number of demand (read+write) accesses
system.l2cache.demand_accesses::total         4514735                       # number of demand (read+write) accesses
system.l2cache.overall_accesses::.cpu.inst      3002720                       # number of overall (read+write) accesses
system.l2cache.overall_accesses::.cpu.data      1512015                       # number of overall (read+write) accesses
system.l2cache.overall_accesses::total        4514735                       # number of overall (read+write) accesses
system.l2cache.demand_miss_rate::.cpu.inst     0.018840                       # miss rate for demand accesses
system.l2cache.demand_miss_rate::.cpu.data     0.237814                       # miss rate for demand accesses
system.l2cache.demand_miss_rate::total       0.092176                       # miss rate for demand accesses
system.l2cache.overall_miss_rate::.cpu.inst     0.018840                       # miss rate for overall accesses
system.l2cache.overall_miss_rate::.cpu.data     0.237814                       # miss rate for overall accesses
system.l2cache.overall_miss_rate::total      0.092176                       # miss rate for overall accesses
system.l2cache.demand_avg_miss_latency::.cpu.inst 96798.023722                       # average overall miss latency
system.l2cache.demand_avg_miss_latency::.cpu.data 99673.493168                       # average overall miss latency
system.l2cache.demand_avg_miss_latency::total 99282.604830                       # average overall miss latency
system.l2cache.overall_avg_miss_latency::.cpu.inst 96798.023722                       # average overall miss latency
system.l2cache.overall_avg_miss_latency::.cpu.data 99673.493168                       # average overall miss latency
system.l2cache.overall_avg_miss_latency::total 99282.604830                       # average overall miss latency
system.l2cache.blocked_cycles::no_mshrs             0                       # number of cycles access was blocked
system.l2cache.blocked_cycles::no_targets            0                       # number of cycles access was blocked
system.l2cache.blocked::no_mshrs                    0                       # number of cycles access was blocked
system.l2cache.blocked::no_targets                  0                       # number of cycles access was blocked
system.l2cache.avg_blocked_cycles::no_mshrs          nan                       # average number of cycles each access was blocked
system.l2cache.avg_blocked_cycles::no_targets          nan                       # average number of cycles each access was blocked
system.l2cache.writebacks::.writebacks         197440                       # number of writebacks
system.l2cache.writebacks::total               197440                       # number of writebacks
system.l2cache.demand_mshr_misses::.cpu.inst        56571                       # number of demand (read+write) MSHR misses
system.l2cache.demand_mshr_misses::.cpu.data       359579                       # number of demand (read+write) MSHR misses
system.l2cache.demand_mshr_misses::total       416150                       # number of demand (read+write) MSHR misses
system.l2cache.overall_mshr_misses::.cpu.inst        56571                       # number of overall MSHR misses
system.l2cache.overall_mshr_misses::.cpu.data       359579                       # number of overall MSHR misses
system.l2cache.overall_mshr_misses::total       416150                       # number of overall MSHR misses
system.l2cache.demand_mshr_miss_latency::.cpu.inst   4344541000                       # number of demand (read+write) MSHR miss cycles
system.l2cache.demand_mshr_miss_latency::.cpu.data  28648915000                       # number of demand (read+write) MSHR miss cycles
system.l2cache.demand_mshr_miss_latency::total  32993456000                       # number of demand (read+write) MSHR miss cycles
system.l2cache.overall_mshr_miss_latency::.cpu.inst   4344541000                       # number of overall MSHR miss cycles
system.l2cache.overall_mshr_miss_latency::.cpu.data  28648915000                       # number of overall MSHR miss cycles
system.l2cache.overall_mshr_miss_latency::total  32993456000                       # number of overall MSHR miss cycles
system.l2cache.demand_mshr_miss_rate::.cpu.inst     0.018840                       # mshr miss rate for demand accesses
system.l2cache.demand_mshr_miss_rate::.cpu.data     0.237814                       # mshr miss rate for demand accesses
system.l2cache.demand_mshr_miss_rate::total     0.092176                       # mshr miss rate for demand accesses
system.l2cache.overall_mshr_miss_rate::.cpu.inst     0.018840                       # mshr miss rate for overall accesses
system.l2cache.overall_mshr_miss_rate::.cpu.data     0.237814                       # mshr miss rate for overall accesses
system.l2cache.overall_mshr_miss_rate::total     0.092176                       # mshr miss rate for overall accesses
system.l2cache.demand_avg_mshr_miss_latency::.cpu.inst 76798.023722                       # average overall mshr miss latency
system.l2cache.demand_avg_mshr_miss_latency::.cpu.data 79673.493168                       # average overall mshr miss latency
system.l2cache.demand_avg_mshr_miss_latency::total 79282.604830                       # average overall mshr miss latency
system.l2cache.overall_avg_mshr_miss_latency::.cpu.inst 76798.023722                       # average overall mshr miss latency
system.l2cache.overall_avg_mshr_miss_latency::.cpu.data 79673.493168                       # average overall mshr miss latency
system.l2cache.overall_avg_mshr_miss_latency::total 79282.604830                       # average overall mshr miss latency
system.l2cache.replacements                    411572                       # number of replacements
system.l2cache.WritebackDirty_hits::.writebacks       828878                       # number of WritebackDirty hits
system.l2cache.WritebackDirty_hits::total       828878                       # number of WritebackDirty hits
system.l2cache.WritebackDirty_misses::.writebacks           33                       # number of WritebackDirty misses
system.l2cache.WritebackDirty_misses::total           33                       # number of WritebackDirty misses
system.l2cache.WritebackDirty_accesses::.writebacks       828911                       # number of WritebackDirty accesses(hits+misses)
system.l2cache.WritebackDirty_accesses::total       828911                       # number of WritebackDirty accesses(hits+misses)
system.l2cache.WritebackDirty_miss_rate::.writebacks     0.000040                       # miss rate for WritebackDirty accesses
system.l2cache.WritebackDirty_miss_rate::total     0.000040                       # miss rate for WritebackDirty accesses
system.l2cache.WritebackDirty_mshr_misses::.writebacks           33                       # number of WritebackDirty MSHR misses
system.l2cache.WritebackDirty_mshr_misses::total           33                       # number of WritebackDirty MSHR misses
system.l2cache.WritebackDirty_mshr_miss_rate::.writebacks     0.000040                       # mshr miss rate for WritebackDirty accesses
system.l2cache.WritebackDirty_mshr_miss_rate::total     0.000040                       # mshr miss rate for WritebackDirty accesses
system.l2cache.CleanEvict_mshr_misses::.writebacks        22269                       # number of CleanEvict MSHR misses
system.l2cache.CleanEvict_mshr_misses::total        22269                       # number of CleanEvict MSHR misses
system.l2cache.CleanEvict_mshr_miss_rate::.writebacks          inf                       # mshr miss rate for CleanEvict accesses
system.l2cache.CleanEvict_mshr_miss_rate::total          inf                       # mshr miss rate for CleanEvict accesses
system.l2cache.ReadExReq_hits::.cpu.data        90750                       # number of ReadExReq hits
system.l2cache.ReadExReq_hits::total            90750                       # number of ReadExReq hits
system.l2cache.ReadExReq_misses::.cpu.data       113178                       # number of ReadExReq misses
system.l2cache.ReadExReq_misses::total         113178                       # number of ReadExReq misses
system.l2cache.ReadExReq_miss_latency::.cpu.data  11005785000                       # number of ReadExReq miss cycles
system.l2cache.ReadExReq_miss_latency::total  11005785000                       # number of ReadExReq miss cycles
system.l2cache.ReadExReq_accesses::.cpu.data       203928                       # number of ReadExReq accesses(hits+misses)
system.l2cache.ReadExReq_accesses::total       203928                       # number of ReadExReq accesses(hits+misses)
system.l2cache.ReadExReq_miss_rate::.cpu.data     0.554990                       # miss rate for ReadExReq accesses
system.l2cache.ReadExReq_miss_rate::total     0.554990                       # miss rate for ReadExReq accesses
system.l2cache.ReadExReq_avg_miss_latency::.cpu.data 97243.147962                       # average ReadExReq miss latency
system.l2cache.ReadExReq_avg_miss_latency::total 97243.147962                       # average ReadExReq miss latency
system.l2cache.ReadExReq_mshr_misses::.cpu.data       113178                       # number of ReadExReq MSHR misses
system.l2cache.ReadExReq_mshr_misses::total       113178                       # number of ReadExReq MSHR misses
system.l2cache.ReadExReq_mshr_miss_latency::.cpu.data   8742225000                       # number of ReadExReq MSHR miss cycles
system.l2cache.ReadExReq_mshr_miss_latency::total   8742225000                       # number of ReadExReq MSHR miss cycles
system.l2cache.ReadExReq_mshr_miss_rate::.cpu.data     0.554990                       # mshr miss rate for ReadExReq accesses
system.l2cache.ReadExReq_mshr_miss_rate::total     0.554990                       # mshr miss rate for ReadExReq accesses
system.l2cache.ReadExReq_avg_mshr_miss_latency::.cpu.data 77243.147962                       # average ReadExReq mshr miss latency
system.l2cache.ReadExReq_avg_mshr_miss_latency::total 77243.147962                       # average ReadExReq mshr miss latency
system.l2cache.ReadSharedReq_hits::.cpu.inst      2946149                       # number of ReadSharedReq hits
system.l2cache.ReadSharedReq_hits::.cpu.data      1061686                       # number of ReadSharedReq hits
system.l2cache.ReadSharedReq_hits::total      4007835                       # number of ReadSharedReq hits
system.l2cache.ReadSharedReq_misses::.cpu.inst        56571                       # number of ReadSharedReq misses
system.l2cache.ReadSharedReq_misses::.cpu.data       246401                       # number of ReadSharedReq misses
system.l2cache.ReadSharedReq_misses::total       302972                       # number of ReadSharedReq misses
system.l2cache.ReadSharedReq_miss_latency::.cpu.inst   5475961000                       # number of ReadSharedReq miss cycles
system.l2cache.ReadSharedReq_miss_latency::.cpu.data  24834710000                       # number of ReadSharedReq miss cycles
system.l2cache.ReadSharedReq_miss_latency::total  30310671000                       # number of ReadSharedReq miss cycles
system.l2cache.ReadSharedReq_accesses::.cpu.inst      3002720                       # number of ReadSharedReq accesses(hits+misses)
system.l2cache.ReadSharedReq_accesses::.cpu.data      1308087                       # number of ReadSharedReq accesses(hits+misses)
system.l2cache.ReadSharedReq_accesses::total      4310807                       # number of ReadSharedReq accesses(hits+misses)
system.l2cache.ReadSharedReq_miss_rate::.cpu.inst     0.018840                       # miss rate for ReadSharedReq accesses
system.l2cache.ReadSharedReq_miss_rate::.cpu.data     0.188367                       # miss rate for ReadSharedReq accesses
system.l2cache.ReadSharedReq_miss_rate::total     0.070282                       # miss rate for ReadSharedReq accesses
system.l2cache.ReadSharedReq_avg_miss_latency::.cpu.inst 96798.023722                       # average ReadSharedReq miss latency
system.l2cache.ReadSharedReq_avg_miss_latency::.cpu.data 100789.810106                       # average ReadSharedReq miss latency
system.l2cache.ReadSharedReq_avg_miss_latency::total 100044.462855                       # average ReadSharedReq miss latency
system.l2cache.ReadSharedReq_mshr_misses::.cpu.inst        56571                       # number of ReadSharedReq MSHR misses
system.l2cache.ReadSharedReq_mshr_misses::.cpu.data       246401                       # number of ReadSharedReq MSHR misses
system.l2cache.ReadSharedReq_mshr_misses::total       302972                       # number of ReadSharedReq MSHR misses
system.l2cache.ReadSharedReq_mshr_miss_latency::.cpu.inst   4344541000                       # number of ReadSharedReq MSHR miss cycles
system.l2cache.ReadSharedReq_mshr_miss_latency::.cpu.data  19906690000                       # number of ReadSharedReq MSHR miss cycles
system.l2cache.ReadSharedReq_mshr_miss_latency::total  24251231000                       # number of ReadSharedReq MSHR miss cycles
system.l2cache.ReadSharedReq_mshr_miss_rate::.cpu.inst     0.018840                       # mshr miss rate for ReadSharedReq accesses
system.l2cache.ReadSharedReq_mshr_miss_rate::.cpu.data     0.188367                       # mshr miss rate for ReadSharedReq accesses
system.l2cache.ReadSharedReq_mshr_miss_rate::total     0.070282                       # mshr miss rate for ReadSharedReq accesses
system.l2cache.ReadSharedReq_avg_mshr_miss_latency::.cpu.inst 76798.023722                       # average ReadSharedReq mshr miss latency
system.l2cache.ReadSharedReq_avg_mshr_miss_latency::.cpu.data 80789.810106                       # average ReadSharedReq mshr miss latency
system.l2cache.ReadSharedReq_avg_mshr_miss_latency::total 80044.462855                       # average ReadSharedReq mshr miss latency
system.l2cache.power_state.pwrStateResidencyTicks::UNDEFINED 2320029186000                       # Cumulative time (in ticks) in various power states
system.l2cache.replacement_policy.totalBypasses         4235                       # Total number of cache bypasses
system.l2cache.replacement_policy.effectiveBypasses          828                       # Bypasses that correctly skipped non-reused blocks
system.l2cache.replacement_policy.ineffectiveBypasses         1349                       # Bypasses that incorrectly skipped requested blocks
system.l2cache.replacement_policy.virtualEffectiveBypasses         6192                       # Virtual bypasses correctly predicting non-reused blocks
system.l2cache.replacement_policy.virtualIneffectiveBypasses        13231                       # Virtual bypasses incorrectly predicting requested blocks
system.l2cache.tags.tagsinuse             4091.680904                       # Cycle average of tags in use
system.l2cache.tags.total_refs                9001686                       # Total number of references to valid blocks.
system.l2cache.tags.sampled_refs               415668                       # Sample count of references to valid blocks.
system.l2cache.tags.avg_refs                21.655951                       # Average number of references to valid blocks.
system.l2cache.tags.warmup_cycle             15322000                       # Cycle when the warmup percentage was hit.
system.l2cache.tags.occ_blocks::.writebacks    23.074012                       # Average occupied blocks per requestor
system.l2cache.tags.occ_blocks::.cpu.inst   585.233150                       # Average occupied blocks per requestor
system.l2cache.tags.occ_blocks::.cpu.data  3483.373742                       # Average occupied blocks per requestor
system.l2cache.tags.occ_percent::.writebacks     0.005633                       # Average percentage of cache occupancy
system.l2cache.tags.occ_percent::.cpu.inst     0.142879                       # Average percentage of cache occupancy
system.l2cache.tags.occ_percent::.cpu.data     0.850433                       # Average percentage of cache occupancy
system.l2cache.tags.occ_percent::total       0.998946                       # Average percentage of cache occupancy
system.l2cache.tags.occ_task_id_blocks::1024         4096                       # Occupied blocks per task id
system.l2cache.tags.age_task_id_blocks_1024::0           62                       # Occupied blocks per task id
system.l2cache.tags.age_task_id_blocks_1024::1          120                       # Occupied blocks per task id
system.l2cache.tags.age_task_id_blocks_1024::2          673                       # Occupied blocks per task id
system.l2cache.tags.age_task_id_blocks_1024::3         2691                       # Occupied blocks per task id
system.l2cache.tags.age_task_id_blocks_1024::4          550                       # Occupied blocks per task id
system.l2cache.tags.occ_task_id_percent::1024            1                       # Percentage of cache occupancy per task id
system.l2cache.tags.tag_accesses             72641188                       # Number of tag accesses
system.l2cache.tags.data_accesses            72641188                       # Number of data accesses
system.l2cache.tags.power_state.pwrStateResidencyTicks::UNDEFINED 2320029186000                       # Cumulative time (in ticks) in various power states
system.mem_ctrl.avgPriority_.writebacks::samples    197473.00                       # Average QoS priority value for accepted requests
system.mem_ctrl.avgPriority_.cpu.inst::samples     56571.00                       # Average QoS priority value for accepted requests
system.mem_ctrl.avgPriority_.cpu.data::samples    349694.00                       # Average QoS priority value for accepted requests
system.mem_ctrl.priorityMinLatency       0.000000018750                       # per QoS priority minimum request to response latency (s)
system.mem_ctrl.priorityMaxLatency       0.042665820500                       # per QoS priority maximum request to response latency (s)
system.mem_ctrl.numReadWriteTurnArounds         11365                       # Number of turnarounds from READ to WRITE
system.mem_ctrl.numWriteReadTurnArounds         11365                       # Number of turnarounds from WRITE to READ
system.mem_ctrl.numStayReadState              1600658                       # Number of times bus staying in READ state
system.mem_ctrl.numStayWriteState              186281                       # Number of times bus staying in WRITE state
system.mem_ctrl.readReqs                       416150                       # Number of read requests accepted
system.mem_ctrl.writeReqs                      197473                       # Number of write requests accepted
system.mem_ctrl.readBursts                     416150                       # Number of controller read bursts, including those serviced by the write queue
system.mem_ctrl.writeBursts                    197473                       # Number of controller write bursts, including those merged in the write queue
system.mem_ctrl.servicedByWrQ                    9885                       # Number of controller read bursts serviced by the write queue
system.mem_ctrl.mergedWrBursts                      0                       # Number of controller write bursts merged with an existing one
system.mem_ctrl.neitherReadNorWriteReqs             0                       # Number of requests that are neither read nor write
system.mem_ctrl.avgRdQLen                        1.00                       # Average read queue length when enqueuing
system.mem_ctrl.avgWrQLen                       24.42                       # Average write queue length when enqueuing
system.mem_ctrl.numRdRetry                          0                       # Number of times read queue was full causing retry
system.mem_ctrl.numWrRetry                          0                       # Number of times write queue was full causing retry
system.mem_ctrl.readPktSize::0                      0                       # Read request sizes (log2)
system.mem_ctrl.readPktSize::1                      0                       # Read request sizes (log2)
system.mem_ctrl.readPktSize::2                      0                       # Read request sizes (log2)
system.mem_ctrl.readPktSize::3                      0                       # Read request sizes (log2)
system.mem_ctrl.readPktSize::4                      0                       # Read request sizes (log2)
system.mem_ctrl.readPktSize::5                      0                       # Read request sizes (log2)
system.mem_ctrl.readPktSize::6                 416150                       # Read request sizes (log2)
system.mem_ctrl.writePktSize::0                     0                       # Write request sizes (log2)
system.mem_ctrl.writePktSize::1                     0                       # Write request sizes (log2)
system.mem_ctrl.writePktSize::2                     0                       # Write request sizes (log2)
system.mem_ctrl.writePktSize::3                     0                       # Write request sizes (log2)
system.mem_ctrl.writePktSize::4                     0                       # Write request sizes (log2)
system.mem_ctrl.writePktSize::5                     0                       # Write request sizes (log2)
system.mem_ctrl.writePktSize::6                197473                       # Write request sizes (log2)
system.mem_ctrl.rdQLenPdf::0                   406265                       # What read queue length does an incoming req see
system.mem_ctrl.rdQLenPdf::1                        0                       # What read queue length does an incoming req see
system.mem_ctrl.rdQLenPdf::2                        0                       # What read queue length does an incoming req see
system.mem_ctrl.rdQLenPdf::3                        0                       # What read queue length does an incoming req see
system.mem_ctrl.rdQLenPdf::4                        0                       # What read queue length does an incoming req see
system.mem_ctrl.rdQLenPdf::5                        0                       # What read queue length does an incoming req see
system.mem_ctrl.rdQLenPdf::6                        0                       # What read queue length does an incoming req see
system.mem_ctrl.rdQLenPdf::7                        0                       # What read queue length does an incoming req see
system.mem_ctrl.rdQLenPdf::8                        0                       # What read queue length does an incoming req see
system.mem_ctrl.rdQLenPdf::9                        0                       # What read queue length does an incoming req see
system.mem_ctrl.rdQLenPdf::10                       0                       # What read queue length does an incoming req see
system.mem_ctrl.rdQLenPdf::11                       0                       # What read queue length does an incoming req see
system.mem_ctrl.rdQLenPdf::12                       0                       # What read queue length does an incoming req see
system.mem_ctrl.rdQLenPdf::13                       0                       # What read queue length does an incoming req see
system.mem_ctrl.rdQLenPdf::14                       0                       # What read queue length does an incoming req see
system.mem_ctrl.rdQLenPdf::15                       0                       # What read queue length does an incoming req see
system.mem_ctrl.rdQLenPdf::16                       0                       # What read queue length does an incoming req see
system.mem_ctrl.rdQLenPdf::17                       0                       # What read queue length does an incoming req see
system.mem_ctrl.rdQLenPdf::18                       0                       # What read queue length does an incoming req see
system.mem_ctrl.rdQLenPdf::19                       0                       # What read queue length does an incoming req see
system.mem_ctrl.rdQLenPdf::20                       0                       # What read queue length does an incoming req see
system.mem_ctrl.rdQLenPdf::21                       0                       # What read queue length does an incoming req see
system.mem_ctrl.rdQLenPdf::22                       0                       # What read queue length does an incoming req see
system.mem_ctrl.rdQLenPdf::23                       0                       # What read queue length does an incoming req see
system.mem_ctrl.rdQLenPdf::24                       0                       # What read queue length does an incoming req see
system.mem_ctrl.rdQLenPdf::25                       0                       # What read queue length does an incoming req see
system.mem_ctrl.rdQLenPdf::26                       0                       # What read queue length does an incoming req see
system.mem_ctrl.rdQLenPdf::27                       0                       # What read queue length does an incoming req see
system.mem_ctrl.rdQLenPdf::28                       0                       # What read queue length does an incoming req see
system.mem_ctrl.rdQLenPdf::29                       0                       # What read queue length does an incoming req see
system.mem_ctrl.rdQLenPdf::30                       0                       # What read queue length does an incoming req see
system.mem_ctrl.rdQLenPdf::31                       0                       # What read queue length does an incoming req see
system.mem_ctrl.wrQLenPdf::0                        1                       # What write queue length does an incoming req see
system.mem_ctrl.wrQLenPdf::1                        1                       # What write queue length does an incoming req see
system.mem_ctrl.wrQLenPdf::2                        1                       # What write queue length does an incoming req see
system.mem_ctrl.wrQLenPdf::3                        1                       # What write queue length does an incoming req see
system.mem_ctrl.wrQLenPdf::4                        1                       # What write queue length does an incoming req see
system.mem_ctrl.wrQLenPdf::5                        1                       # What write queue length does an incoming req see
system.mem_ctrl.wrQLenPdf::6                        1                       # What write queue length does an incoming req see
system.mem_ctrl.wrQLenPdf::7                        1                       # What write queue length does an incoming req see
system.mem_ctrl.wrQLenPdf::8                        1                       # What write queue length does an incoming req see
system.mem_ctrl.wrQLenPdf::9                        1                       # What write queue length does an incoming req see
system.mem_ctrl.wrQLenPdf::10                       1                       # What write queue length does an incoming req see
system.mem_ctrl.wrQLenPdf::11                       1                       # What write queue length does an incoming req see
system.mem_ctrl.wrQLenPdf::12                       1                       # What write queue length does an incoming req see
system.mem_ctrl.wrQLenPdf::13                       1                       # What write queue length does an incoming req see
system.mem_ctrl.wrQLenPdf::14                       1                       # What write queue length does an incoming req see
system.mem_ctrl.wrQLenPdf::15                    7539                       # What write queue length does an incoming req see
system.mem_ctrl.wrQLenPdf::16                    8071                       # What write queue length does an incoming req see
system.mem_ctrl.wrQLenPdf::17                   11362                       # What write queue length does an incoming req see
system.mem_ctrl.wrQLenPdf::18                   11369                       # What write queue length does an incoming req see
system.mem_ctrl.wrQLenPdf::19                   11366                       # What write queue length does an incoming req see
system.mem_ctrl.wrQLenPdf::20                   11365                       # What write queue length does an incoming req see
system.mem_ctrl.wrQLenPdf::21                   11367                       # What write queue length does an incoming req see
system.mem_ctrl.wrQLenPdf::22                   11366                       # What write queue length does an incoming req see
system.mem_ctrl.wrQLenPdf::23                   11365                       # What write queue length does an incoming req see
system.mem_ctrl.wrQLenPdf::24                   11365                       # What write queue length does an incoming req see
system.mem_ctrl.wrQLenPdf::25                   11365                       # What write queue length does an incoming req see
system.mem_ctrl.wrQLenPdf::26                   11365                       # What write queue length does an incoming req see
system.mem_ctrl.wrQLenPdf::27                   11365                       # What write queue length does an incoming req see
system.mem_ctrl.wrQLenPdf::28                   11366                       # What write queue length does an incoming req see
system.mem_ctrl.wrQLenPdf::29                   11365                       # What write queue length does an incoming req see
system.mem_ctrl.wrQLenPdf::30                   11365                       # What write queue length does an incoming req see
system.mem_ctrl.wrQLenPdf::31                   11365                       # What write queue length does an incoming req see
system.mem_ctrl.wrQLenPdf::32                   11365                       # What write queue length does an incoming req see
system.mem_ctrl.wrQLenPdf::33                       2                       # What write queue length does an incoming req see
system.mem_ctrl.wrQLenPdf::34                       0                       # What write queue length does an incoming req see
system.mem_ctrl.wrQLenPdf::35                       0                       # What write queue length does an incoming req see
system.mem_ctrl.wrQLenPdf::36                       0                       # What write queue length does an incoming req see
system.mem_ctrl.wrQLenPdf::37                       0                       # What write queue length does an incoming req see
system.mem_ctrl.wrQLenPdf::38                       0                       # What write queue length does an incoming req see
system.mem_ctrl.wrQLenPdf::39                       0                       # What write queue length does an incoming req see
system.mem_ctrl.wrQLenPdf::40                       0                       # What write queue length does an incoming req see
system.mem_ctrl.wrQLenPdf::41                       0                       # What write queue length does an incoming req see
system.mem_ctrl.wrQLenPdf::42                       0                       # What write queue length does an incoming req see
system.mem_ctrl.wrQLenPdf::43                       0                       # What write queue length does an incoming req see
system.mem_ctrl.wrQLenPdf::44                       0                       # What write queue length does an incoming req see
system.mem_ctrl.wrQLenPdf::45                       0                       # What write queue length does an incoming req see
system.mem_ctrl.wrQLenPdf::46                       0                       # What write queue length does an incoming req see
system.mem_ctrl.wrQLenPdf::47                       0                       # What write queue length does an incoming req see
system.mem_ctrl.wrQLenPdf::48                       0                       # What write queue length does an incoming req see
system.mem_ctrl.wrQLenPdf::49                       0                       # What write queue length does an incoming req see
system.mem_ctrl.wrQLenPdf::50                       0                       # What write queue length does an incoming req see
system.mem_ctrl.wrQLenPdf::51                       0                       # What write queue length does an incoming req see
system.mem_ctrl.wrQLenPdf::52                       0                       # What write queue length does an incoming req see
system.mem_ctrl.wrQLenPdf::53                       0                       # What write queue length does an incoming req see
system.mem_ctrl.wrQLenPdf::54                       0                       # What write queue length does an incoming req see
system.mem_ctrl.wrQLenPdf::55                       0                       # What write queue length does an incoming req see
system.mem_ctrl.wrQLenPdf::56                       0                       # What write queue length does an incoming req see
system.mem_ctrl.wrQLenPdf::57                       0                       # What write queue length does an incoming req see
system.mem_ctrl.wrQLenPdf::58                       0                       # What write queue length does an incoming req see
system.mem_ctrl.wrQLenPdf::59                       0                       # What write queue length does an incoming req see
system.mem_ctrl.wrQLenPdf::60                       0                       # What write queue length does an incoming req see
system.mem_ctrl.wrQLenPdf::61                       0                       # What write queue length does an incoming req see
system.mem_ctrl.wrQLenPdf::62                       0                       # What write queue length does an incoming req see
system.mem_ctrl.wrQLenPdf::63                       0                       # What write queue length does an incoming req see
system.mem_ctrl.rdPerTurnAround::samples        11365                       # Reads before turning the bus around for writes
system.mem_ctrl.rdPerTurnAround::mean       35.745974                       # Reads before turning the bus around for writes
system.mem_ctrl.rdPerTurnAround::gmean      28.829653                       # Reads before turning the bus around for writes
system.mem_ctrl.rdPerTurnAround::stdev      52.659785                       # Reads before turning the bus around for writes
system.mem_ctrl.rdPerTurnAround::0-255          11313     99.54%     99.54% # Reads before turning the bus around for writes
system.mem_ctrl.rdPerTurnAround::256-511           51      0.45%     99.99% # Reads before turning the bus around for writes
system.mem_ctrl.rdPerTurnAround::4352-4607            1      0.01%    100.00% # Reads before turning the bus around for writes
system.mem_ctrl.rdPerTurnAround::total          11365                       # Reads before turning the bus around for writes
system.mem_ctrl.wrPerTurnAround::samples        11365                       # Writes before turning the bus around for reads
system.mem_ctrl.wrPerTurnAround::mean       17.373867                       # Writes before turning the bus around for reads
system.mem_ctrl.wrPerTurnAround::gmean      17.349701                       # Writes before turning the bus around for reads
system.mem_ctrl.wrPerTurnAround::stdev       0.903201                       # Writes before turning the bus around for reads
system.mem_ctrl.wrPerTurnAround::16              3297     29.01%     29.01% # Writes before turning the bus around for reads
system.mem_ctrl.wrPerTurnAround::17               530      4.66%     33.67% # Writes before turning the bus around for reads
system.mem_ctrl.wrPerTurnAround::18              7530     66.26%     99.93% # Writes before turning the bus around for reads
system.mem_ctrl.wrPerTurnAround::19                 8      0.07%    100.00% # Writes before turning the bus around for reads
system.mem_ctrl.wrPerTurnAround::total          11365                       # Writes before turning the bus around for reads
system.mem_ctrl.bytesReadWrQ                   632640                       # Total number of bytes read from write queue
system.mem_ctrl.bytesReadSys                 26633600                       # Total read bytes from the system interface side
system.mem_ctrl.bytesWrittenSys              12638272                       # Total written bytes from the system interface side
system.mem_ctrl.avgRdBWSys                      11.48                       # Average system read bandwidth in MiByte/s
system.mem_ctrl.avgWrBWSys                       5.45                       # Average system write bandwidth in MiByte/s
system.mem_ctrl.totGap                   2320029154000                       # Total gap between requests
system.mem_ctrl.avgGap                     3780870.59                       # Average gap between requests
system.mem_ctrl.requestorReadBytes::.cpu.inst      3620544                       # Per-requestor bytes read from memory
system.mem_ctrl.requestorReadBytes::.cpu.data     22380416                       # Per-requestor bytes read from memory
system.mem_ctrl.requestorWriteBytes::.writebacks     12637056                       # Per-requestor bytes write to memory
[...]
system.mem_ctrl.requestorReadRate::.cpu.data 9646609.678469793871                       # Per-requestor bytes read from memory rate (Bytes/sec)
system.mem_ctrl.requestorWriteRate::.writebacks 5446938.373127862811                       # Per-requestor bytes write to memory rate (Bytes/sec)
system.mem_ctrl.requestorReadAccesses::.cpu.inst        56571                       # Per-requestor read serviced memory accesses
system.mem_ctrl.requestorReadAccesses::.cpu.data       359579                       # Per-requestor read serviced memory accesses
system.mem_ctrl.requestorWriteAccesses::.writebacks       197473                       # Per-requestor write serviced memory accesses
system.mem_ctrl.requestorReadTotalLat::.cpu.inst   1442834750                       # Per-requestor read total memory access latency
system.mem_ctrl.requestorReadTotalLat::.cpu.data  10287241000                       # Per-requestor read total memory access latency
system.mem_ctrl.requestorWriteTotalLat::.writebacks 54289186283750                       # Per-requestor write total memory access latency
system.mem_ctrl.requestorReadAvgLat::.cpu.inst     25504.85                       # Per-requestor read average memory access latency
system.mem_ctrl.requestorReadAvgLat::.cpu.data     28609.13                       # Per-requestor read average memory access latency
system.mem_ctrl.requestorWriteAvgLat::.writebacks 274919539.80                       # Per-requestor write average memory access latency
system.mem_ctrl.dram.bytes_read::.cpu.inst      3620544                       # Number of bytes read from this memory
system.mem_ctrl.dram.bytes_read::.cpu.data     23013056                       # Number of bytes read from this memory
system.mem_ctrl.dram.bytes_read::total       26633600                       # Number of bytes read from this memory
system.mem_ctrl.dram.bytes_inst_read::.cpu.inst      3620544                       # Number of instructions bytes read from this memory
system.mem_ctrl.dram.bytes_inst_read::total      3620544                       # Number of instructions bytes read from this memory
system.mem_ctrl.dram.bytes_written::.writebacks     12638272                       # Number of bytes written to this memory
system.mem_ctrl.dram.bytes_written::total     12638272                       # Number of bytes written to this memory
system.mem_ctrl.dram.num_reads::.cpu.inst        56571                       # Number of read requests responded to by this memory
system.mem_ctrl.dram.num_reads::.cpu.data       359579                       # Number of read requests responded to by this memory
system.mem_ctrl.dram.num_reads::total          416150                       # Number of read requests responded to by this memory
system.mem_ctrl.dram.num_writes::.writebacks       197473                       # Number of write requests responded to by this memory
system.mem_ctrl.dram.num_writes::total         197473                       # Number of write requests responded to by this memory
system.mem_ctrl.dram.bw_read::.cpu.inst       1560560                       # Total read bandwidth from this memory (bytes/s)
system.mem_ctrl.dram.bw_read::.cpu.data       9919296                       # Total read bandwidth from this memory (bytes/s)
system.mem_ctrl.dram.bw_read::total          11479856                       # Total read bandwidth from this memory (bytes/s)
system.mem_ctrl.dram.bw_inst_read::.cpu.inst      1560560                       # Instruction read bandwidth from this memory (bytes/s)
system.mem_ctrl.dram.bw_inst_read::total      1560560                       # Instruction read bandwidth from this memory (bytes/s)
system.mem_ctrl.dram.bw_write::.writebacks      5447463                       # Write bandwidth from this memory (bytes/s)
system.mem_ctrl.dram.bw_write::total          5447463                       # Write bandwidth from this memory (bytes/s)
system.mem_ctrl.dram.bw_total::.writebacks      5447463                       # Total bandwidth to/from this memory (bytes/s)
system.mem_ctrl.dram.bw_total::.cpu.inst      1560560                       # Total bandwidth to/from this memory (bytes/s)
system.mem_ctrl.dram.bw_total::.cpu.data      9919296                       # Total bandwidth to/from this memory (bytes/s)
system.mem_ctrl.dram.bw_total::total         16927318                       # Total bandwidth to/from this memory (bytes/s)
system.mem_ctrl.dram.readBursts                406265                       # Number of DRAM read bursts
system.mem_ctrl.dram.writeBursts               197454                       # Number of DRAM write bursts
system.mem_ctrl.dram.perBankRdBursts::0         22795                       # Per bank write bursts
system.mem_ctrl.dram.perBankRdBursts::1         21922                       # Per bank write bursts
system.mem_ctrl.dram.perBankRdBursts::2         17890                       # Per bank write bursts
system.mem_ctrl.dram.perBankRdBursts::3         21492                       # Per bank write bursts
system.mem_ctrl.dram.perBankRdBursts::4         26617                       # Per bank write bursts
system.mem_ctrl.dram.perBankRdBursts::5         31310                       # Per bank write bursts
system.mem_ctrl.dram.perBankRdBursts::6         23271                       # Per bank write bursts
system.mem_ctrl.dram.perBankRdBursts::7         29979                       # Per bank write bursts
system.mem_ctrl.dram.perBankRdBursts::8         28120                       # Per bank write bursts
system.mem_ctrl.dram.perBankRdBursts::9         30439                       # Per bank write bursts
system.mem_ctrl.dram.perBankRdBursts::10        27583                       # Per bank write bursts
system.mem_ctrl.dram.perBankRdBursts::11        32507                       # Per bank write bursts
system.mem_ctrl.dram.perBankRdBursts::12        23328                       # Per bank write bursts
system.mem_ctrl.dram.perBankRdBursts::13        27035                       # Per bank write bursts
system.mem_ctrl.dram.perBankRdBursts::14        18608                       # Per bank write bursts
system.mem_ctrl.dram.perBankRdBursts::15        23369                       # Per bank write bursts
system.mem_ctrl.dram.perBankWrBursts::0         12439                       # Per bank write bursts
system.mem_ctrl.dram.perBankWrBursts::1          9202                       # Per bank write bursts
system.mem_ctrl.dram.perBankWrBursts::2          7076                       # Per bank write bursts
system.mem_ctrl.dram.perBankWrBursts::3          9596                       # Per bank write bursts
system.mem_ctrl.dram.perBankWrBursts::4         11136                       # Per bank write bursts
system.mem_ctrl.dram.perBankWrBursts::5         19999                       # Per bank write bursts
system.mem_ctrl.dram.perBankWrBursts::6         14229                       # Per bank write bursts
system.mem_ctrl.dram.perBankWrBursts::7         17680                       # Per bank write bursts
system.mem_ctrl.dram.perBankWrBursts::8         15203                       # Per bank write bursts
system.mem_ctrl.dram.perBankWrBursts::9         17404                       # Per bank write bursts
system.mem_ctrl.dram.perBankWrBursts::10        11315                       # Per bank write bursts
system.mem_ctrl.dram.perBankWrBursts::11         9966                       # Per bank write bursts
system.mem_ctrl.dram.perBankWrBursts::12        11479                       # Per bank write bursts
system.mem_ctrl.dram.perBankWrBursts::13        10801                       # Per bank write bursts
system.mem_ctrl.dram.perBankWrBursts::14         8487                       # Per bank write bursts
system.mem_ctrl.dram.perBankWrBursts::15        11442                       # Per bank write bursts
system.mem_ctrl.dram.totQLat               4112607000                       # Total ticks spent queuing
system.mem_ctrl.dram.totBusLat             2031325000                       # Total ticks spent in databus transfers
system.mem_ctrl.dram.totMemAccLat         11730075750                       # Total ticks spent from burst creation until serviced by the DRAM
system.mem_ctrl.dram.avgQLat                 10122.97                       # Average queueing delay per DRAM burst
system.mem_ctrl.dram.avgBusLat                5000.00                       # Average bus latency per DRAM burst
system.mem_ctrl.dram.avgMemAccLat            28872.97                       # Average memory access latency per DRAM burst
system.mem_ctrl.dram.readRowHits               265679                       # Number of row buffer hits during reads
system.mem_ctrl.dram.writeRowHits              164432                       # Number of row buffer hits during writes
system.mem_ctrl.dram.readRowHitRate             65.40                       # Row buffer hit rate for reads
system.mem_ctrl.dram.writeRowHitRate            83.28                       # Row buffer hit rate for writes
system.mem_ctrl.dram.bytesPerActivate::samples       173595                       # Bytes accessed per row activation
system.mem_ctrl.dram.bytesPerActivate::mean   222.561986                       # Bytes accessed per row activation
system.mem_ctrl.dram.bytesPerActivate::gmean   138.039787                       # Bytes accessed per row activation
system.mem_ctrl.dram.bytesPerActivate::stdev   256.395428                       # Bytes accessed per row activation
system.mem_ctrl.dram.bytesPerActivate::0-127        85421     49.21%     49.21% # Bytes accessed per row activation
system.mem_ctrl.dram.bytesPerActivate::128-255        36597     21.08%     70.29% # Bytes accessed per row activation
system.mem_ctrl.dram.bytesPerActivate::256-383        17822     10.27%     80.56% # Bytes accessed per row activation
system.mem_ctrl.dram.bytesPerActivate::384-511        12052      6.94%     87.50% # Bytes accessed per row activation
system.mem_ctrl.dram.bytesPerActivate::512-639         5005      2.88%     90.38% # Bytes accessed per row activation
system.mem_ctrl.dram.bytesPerActivate::640-767         3539      2.04%     92.42% # Bytes accessed per row activation
system.mem_ctrl.dram.bytesPerActivate::768-895         2796      1.61%     94.03% # Bytes accessed per row activation
system.mem_ctrl.dram.bytesPerActivate::896-1023         2056      1.18%     95.21% # Bytes accessed per row activation
system.mem_ctrl.dram.bytesPerActivate::1024-1151         8307      4.79%    100.00% # Bytes accessed per row activation
system.mem_ctrl.dram.bytesPerActivate::total       173595                       # Bytes accessed per row activation
system.mem_ctrl.dram.bytesRead               26000960                       # Total number of bytes read from DRAM
system.mem_ctrl.dram.bytesWritten            12637056                       # Total number of bytes written to DRAM
system.mem_ctrl.dram.avgRdBW                11.207169                       # Average DRAM read bandwidth in MiBytes/s
system.mem_ctrl.dram.avgWrBW                 5.446938                       # Average DRAM write bandwidth in MiBytes/s
system.mem_ctrl.dram.peakBW                  12800.00                       # Theoretical peak bandwidth in MiByte/s
system.mem_ctrl.dram.busUtil                     0.13                       # Data bus utilization in percentage
system.mem_ctrl.dram.busUtilRead                 0.09                       # Data bus utilization in percentage for reads
system.mem_ctrl.dram.busUtilWrite                0.04                       # Data bus utilization in percentage for writes
system.mem_ctrl.dram.pageHitRate                71.24                       # Row buffer hit rate, read and write combined
system.mem_ctrl.dram.power_state.pwrStateResidencyTicks::UNDEFINED 2320029186000                       # Cumulative time (in ticks) in various power states
system.mem_ctrl.dram.rank0.actEnergy        575112720                       # Energy for activate commands per rank (pJ)
system.mem_ctrl.dram.rank0.preEnergy        305653095                       # Energy for precharge commands per rank (pJ)
system.mem_ctrl.dram.rank0.readEnergy      1394270640                       # Energy for read commands per rank (pJ)
system.mem_ctrl.dram.rank0.writeEnergy      529083540                       # Energy for write commands per rank (pJ)
system.mem_ctrl.dram.rank0.refreshEnergy 183140592960.000031                       # Energy for refresh commands per rank (pJ)
system.mem_ctrl.dram.rank0.actBackEnergy 117486540090                       # Energy for active background per rank (pJ)
system.mem_ctrl.dram.rank0.preBackEnergy 791955173760                       # Energy for precharge background per rank (pJ)
system.mem_ctrl.dram.rank0.actPowerDownEnergy            0                       # Energy for active power-down per rank (pJ)
system.mem_ctrl.dram.rank0.prePowerDownEnergy            0                       # Energy for precharge power-down per rank (pJ)
system.mem_ctrl.dram.rank0.selfRefreshEnergy            0                       # Energy for self refresh per rank (pJ)
system.mem_ctrl.dram.rank0.totalEnergy   1095386426805                       # Total energy per rank (pJ)
system.mem_ctrl.dram.rank0.averagePower    472.143382                       # Core power per rank (mW)
system.mem_ctrl.dram.rank0.totalIdleTime            0                       # Total Idle time Per DRAM Rank
system.mem_ctrl.dram.rank0.pwrStateTime::IDLE 2057759245000                       # Time in different power states
system.mem_ctrl.dram.rank0.pwrStateTime::REF  77470640000                       # Time in different power states
system.mem_ctrl.dram.rank0.pwrStateTime::SREF            0                       # Time in different power states
system.mem_ctrl.dram.rank0.pwrStateTime::PRE_PDN            0                       # Time in different power states
system.mem_ctrl.dram.rank0.pwrStateTime::ACT 184799301000                       # Time in different power states
system.mem_ctrl.dram.rank0.pwrStateTime::ACT_PDN            0                       # Time in different power states
system.mem_ctrl.dram.rank1.actEnergy        664448400                       # Energy for activate commands per rank (pJ)
system.mem_ctrl.dram.rank1.preEnergy        353139930                       # Energy for precharge commands per rank (pJ)
system.mem_ctrl.dram.rank1.readEnergy      1506461460                       # Energy for read commands per rank (pJ)
system.mem_ctrl.dram.rank1.writeEnergy      501626340                       # Energy for write commands per rank (pJ)
system.mem_ctrl.dram.rank1.refreshEnergy 183140592960.000031                       # Energy for refresh commands per rank (pJ)
system.mem_ctrl.dram.rank1.actBackEnergy 113043556530                       # Energy for active background per rank (pJ)
system.mem_ctrl.dram.rank1.preBackEnergy 795696633600                       # Energy for precharge background per rank (pJ)
system.mem_ctrl.dram.rank1.actPowerDownEnergy            0                       # Energy for active power-down per rank (pJ)
system.mem_ctrl.dram.rank1.prePowerDownEnergy            0                       # Energy for precharge power-down per rank (pJ)
system.mem_ctrl.dram.rank1.selfRefreshEnergy            0                       # Energy for self refresh per rank (pJ)
system.mem_ctrl.dram.rank1.totalEnergy   1094906459220                       # Total energy per rank (pJ)
system.mem_ctrl.dram.rank1.averagePower    471.936502                       # Core power per rank (mW)
system.mem_ctrl.dram.rank1.totalIdleTime            0                       # Total Idle time Per DRAM Rank
system.mem_ctrl.dram.rank1.pwrStateTime::IDLE 2067521123000                       # Time in different power states
system.mem_ctrl.dram.rank1.pwrStateTime::REF  77470640000                       # Time in different power states
system.mem_ctrl.dram.rank1.pwrStateTime::SREF            0                       # Time in different power states
system.mem_ctrl.dram.rank1.pwrStateTime::PRE_PDN            0                       # Time in different power states
system.mem_ctrl.dram.rank1.pwrStateTime::ACT 175037423000                       # Time in different power states
system.mem_ctrl.dram.rank1.pwrStateTime::ACT_PDN            0                       # Time in different power states
system.mem_ctrl.power_state.pwrStateResidencyTicks::UNDEFINED 2320029186000                       # Cumulative time (in ticks) in various power states
system.membus.trans_dist::ReadResp             302972                       # Transaction distribution
system.membus.trans_dist::WritebackDirty       197473                       # Transaction distribution
system.membus.trans_dist::CleanEvict           214541                       # Transaction distribution
system.membus.trans_dist::ReadExReq            113178                       # Transaction distribution
system.membus.trans_dist::ReadExResp           113178                       # Transaction distribution
system.membus.trans_dist::ReadSharedReq        302972                       # Transaction distribution
system.membus.pkt_count_system.l2cache.mem_side_port::system.mem_ctrl.port      1244314                       # Packet count per connected requestor and responder (bytes)
system.membus.pkt_count_system.l2cache.mem_side_port::total      1244314                       # Packet count per connected requestor and responder (bytes)
system.membus.pkt_count::total                1244314                       # Packet count per connected requestor and responder (bytes)
system.membus.pkt_size_system.l2cache.mem_side_port::system.mem_ctrl.port     39271872                       # Cumulative packet size per connected requestor and responder (bytes)
system.membus.pkt_size_system.l2cache.mem_side_port::total     39271872                       # Cumulative packet size per connected requestor and responder (bytes)
system.membus.pkt_size::total                39271872                       # Cumulative packet size per connected requestor and responder (bytes)
system.membus.snoops                                0                       # Total snoops (count)
system.membus.snoopTraffic                          0                       # Total snoop traffic (bytes)
system.membus.snoop_fanout::samples            416150                       # Request fanout histogram
system.membus.snoop_fanout::mean                    0                       # Request fanout histogram
system.membus.snoop_fanout::stdev                   0                       # Request fanout histogram
system.membus.snoop_fanout::underflows              0      0.00%      0.00% # Request fanout histogram
system.membus.snoop_fanout::0                  416150    100.00%    100.00% # Request fanout histogram
system.membus.snoop_fanout::1                       0      0.00%    100.00% # Request fanout histogram
system.membus.snoop_fanout::overflows               0      0.00%    100.00% # Request fanout histogram
system.membus.snoop_fanout::min_value               0                       # Request fanout histogram
system.membus.snoop_fanout::max_value               0                       # Request fanout histogram
system.membus.snoop_fanout::total              416150                       # Request fanout histogram
system.membus.power_state.pwrStateResidencyTicks::UNDEFINED 2320029186000                       # Cumulative time (in ticks) in various power states
system.membus.reqLayer2.occupancy          1618056000                       # Layer occupancy (ticks)
system.membus.reqLayer2.utilization               0.1                       # Layer utilization (%)
system.membus.respLayer0.occupancy         2219283250                       # Layer occupancy (ticks)
system.membus.respLayer0.utilization              0.1                       # Layer utilization (%)

---------- End Simulation Statistics   ----------
