
---------- Begin Simulation Statistics ----------
final_tick                               2288222690000                       # Number of ticks from beginning of simulation (restored from checkpoints and never reset)
host_inst_rate                                 458300                       # Simulator instruction rate (inst/s)
host_mem_usage                                 675468                       # Number of bytes of host memory used
host_op_rate                                   671456                       # Simulator op (including micro ops) rate (op/s)
host_seconds                                  1148.11                       # Real time elapsed on the host
host_tick_rate                             1993038000                       # Simulator tick rate (ticks/s)
sim_freq                                 1000000000000                       # Frequency of simulated ticks
sim_insts                                   526177731                       # Number of instructions simulated
sim_ops                                     770903812                       # Number of ops (including micro ops) simulated
sim_seconds                                  2.288223                       # Number of seconds simulated
sim_ticks                                2288222690000                       # Number of ticks simulated
system.cpu.Branches                           3021914                       # Number of branches fetched
system.cpu.committedInsts                   526177731                       # Number of instructions committed
system.cpu.committedOps                     770903812                       # Number of ops (including micro ops) committed
system.cpu.idle_fraction                     0.000000                       # Percentage of idle cycles
system.cpu.not_idle_fraction                 1.000000                       # Percentage of non-idle cycles
system.cpu.numCycles                       2288222690                       # number of cpu cycles simulated
system.cpu.numWorkItemsCompleted                    0                       # number of work items this cpu completed
system.cpu.numWorkItemsStarted                      0                       # number of work items this cpu started
system.cpu.num_busy_cycles               2288222689.999000                       # Number of busy cycles
system.cpu.num_cc_register_reads              8346417                       # number of times the CC registers were read
system.cpu.num_cc_register_writes            12896331                       # number of times the CC registers were written
system.cpu.num_conditional_control_insts      1622645                       # number of instructions that are conditional controls
system.cpu.num_fp_alu_accesses              724171269                       # Number of float alu accesses
system.cpu.num_fp_insts                     724171269                       # number of float instructions
system.cpu.num_fp_register_reads           1031628198                       # number of times the floating registers were read
system.cpu.num_fp_register_writes           638978691                       # number of times the floating registers were written
system.cpu.num_func_calls                     1356008                       # number of times a function call or return occured
system.cpu.num_idle_cycles                   0.001000                       # Number of idle cycles
system.cpu.num_int_alu_accesses             281643984                       # Number of integer alu accesses
system.cpu.num_int_insts                    281643984                       # number of integer instructions
system.cpu.num_int_register_reads           783870334                       # number of times the integer registers were read
system.cpu.num_int_register_writes           35235605                       # number of times the integer registers were written
system.cpu.num_load_insts                   151055063                       # Number of load instructions
system.cpu.num_mem_refs                     244655500                       # number of memory refs
system.cpu.num_store_insts                   93600437                       # Number of store instructions
system.cpu.num_vec_alu_accesses                     0                       # Number of vector alu accesses
system.cpu.num_vec_insts                            0                       # number of vector instructions
system.cpu.num_vec_register_reads                   0                       # number of times the vector registers were read
system.cpu.num_vec_register_writes                  0                       # number of times the vector registers were written
system.cpu.op_class::No_OpClass                122351      0.02%      0.02% # Class of executed instruction
system.cpu.op_class::IntAlu                 156847914     20.35%     20.36% # Class of executed instruction
system.cpu.op_class::IntMult                    38310      0.00%     20.37% # Class of executed instruction
system.cpu.op_class::IntDiv                       581      0.00%     20.37% # Class of executed instruction
system.cpu.op_class::FloatAdd               129162355     16.75%     37.12% # Class of executed instruction
system.cpu.op_class::FloatCmp                       0      0.00%     37.12% # Class of executed instruction
system.cpu.op_class::FloatCvt                       0      0.00%     37.12% # Class of executed instruction
system.cpu.op_class::FloatMult                      0      0.00%     37.12% # Class of executed instruction
system.cpu.op_class::FloatMultAcc                   0      0.00%     37.12% # Class of executed instruction
system.cpu.op_class::FloatDiv                       0      0.00%     37.12% # Class of executed instruction
system.cpu.op_class::FloatMisc                      0      0.00%     37.12% # Class of executed instruction
system.cpu.op_class::FloatSqrt                      0      0.00%     37.12% # Class of executed instruction
system.cpu.op_class::SimdAdd                      104      0.00%     37.12% # Class of executed instruction
system.cpu.op_class::SimdAddAcc                     0      0.00%     37.12% # Class of executed instruction
system.cpu.op_class::SimdAlu                 13572619      1.76%     38.88% # Class of executed instruction
system.cpu.op_class::SimdCmp                       18      0.00%     38.88% # Class of executed instruction
system.cpu.op_class::SimdCvt                     1518      0.00%     38.88% # Class of executed instruction
system.cpu.op_class::SimdMisc                   18290      0.00%     38.88% # Class of executed instruction
system.cpu.op_class::SimdMult                       0      0.00%     38.88% # Class of executed instruction
system.cpu.op_class::SimdMultAcc                    0      0.00%     38.88% # Class of executed instruction
system.cpu.op_class::SimdShift                    156      0.00%     38.88% # Class of executed instruction
system.cpu.op_class::SimdShiftAcc                   0      0.00%     38.88% # Class of executed instruction
system.cpu.op_class::SimdDiv                        0      0.00%     38.88% # Class of executed instruction
system.cpu.op_class::SimdSqrt                       0      0.00%     38.88% # Class of executed instruction
system.cpu.op_class::SimdFloatAdd           100487583     13.04%     51.92% # Class of executed instruction
system.cpu.op_class::SimdFloatAlu                   0      0.00%     51.92% # Class of executed instruction
system.cpu.op_class::SimdFloatCmp                   0      0.00%     51.92% # Class of executed instruction
system.cpu.op_class::SimdFloatCvt               11622      0.00%     51.92% # Class of executed instruction
system.cpu.op_class::SimdFloatDiv             1355195      0.18%     52.10% # Class of executed instruction
system.cpu.op_class::SimdFloatMisc                  0      0.00%     52.10% # Class of executed instruction
system.cpu.op_class::SimdFloatMult          124629795     16.17%     68.26% # Class of executed instruction
system.cpu.op_class::SimdFloatMultAcc               0      0.00%     68.26% # Class of executed instruction
system.cpu.op_class::SimdFloatSqrt                 10      0.00%     68.26% # Class of executed instruction
system.cpu.op_class::SimdReduceAdd                  0      0.00%     68.26% # Class of executed instruction
system.cpu.op_class::SimdReduceAlu                  0      0.00%     68.26% # Class of executed instruction
system.cpu.op_class::SimdReduceCmp                  0      0.00%     68.26% # Class of executed instruction
system.cpu.op_class::SimdFloatReduceAdd             0      0.00%     68.26% # Class of executed instruction
system.cpu.op_class::SimdFloatReduceCmp             0      0.00%     68.26% # Class of executed instruction
system.cpu.op_class::SimdAes                        0      0.00%     68.26% # Class of executed instruction
system.cpu.op_class::SimdAesMix                     0      0.00%     68.26% # Class of executed instruction
system.cpu.op_class::SimdSha1Hash                   0      0.00%     68.26% # Class of executed instruction
system.cpu.op_class::SimdSha1Hash2                  0      0.00%     68.26% # Class of executed instruction
system.cpu.op_class::SimdSha256Hash                 0      0.00%     68.26% # Class of executed instruction
system.cpu.op_class::SimdSha256Hash2                0      0.00%     68.26% # Class of executed instruction
system.cpu.op_class::SimdShaSigma2                  0      0.00%     68.26% # Class of executed instruction
system.cpu.op_class::SimdShaSigma3                  0      0.00%     68.26% # Class of executed instruction
system.cpu.op_class::SimdPredAlu                    0      0.00%     68.26% # Class of executed instruction
system.cpu.op_class::MemRead                  1225920      0.16%     68.42% # Class of executed instruction
system.cpu.op_class::MemWrite                 8411222      1.09%     69.51% # Class of executed instruction
system.cpu.op_class::FloatMemRead           149829143     19.44%     88.95% # Class of executed instruction
system.cpu.op_class::FloatMemWrite           85189215     11.05%    100.00% # Class of executed instruction
system.cpu.op_class::IprAccess                      0      0.00%    100.00% # Class of executed instruction
system.cpu.op_class::InstPrefetch                   0      0.00%    100.00% # Class of executed instruction
system.cpu.op_class::total                  770903921                       # Class of executed instruction
system.cpu.workload.numSyscalls                    85                       # Number of system calls
system.l2bus.snoop_filter.hit_multi_requests            0                       # Number of requests hitting in the snoop filter with multiple (>1) holders of the requested data.
system.l2bus.snoop_filter.hit_multi_snoops            0                       # Number of snoops hitting in the snoop filter with multiple (>1) holders of the requested data.
system.l2bus.snoop_filter.hit_single_requests      4513452                       # Number of requests hitting in the snoop filter with a single holder of the requested data.
system.l2bus.snoop_filter.hit_single_snoops          143                       # Number of snoops hitting in the snoop filter with a single holder of the requested data.
system.l2bus.snoop_filter.tot_requests        9028184                       # Total number of requests made to the snoop filter.
system.l2bus.snoop_filter.tot_snoops              143                       # Total number of snoops made to the snoop filter.
system.membus.snoop_filter.hit_multi_requests            0                       # Number of requests hitting in the snoop filter with multiple (>1) holders of the requested data.
system.membus.snoop_filter.hit_multi_snoops            0                       # Number of snoops hitting in the snoop filter with multiple (>1) holders of the requested data.
system.membus.snoop_filter.hit_single_requests         2197                       # Number of requests hitting in the snoop filter with a single holder of the requested data.
system.membus.snoop_filter.hit_single_snoops            0                       # Number of snoops hitting in the snoop filter with a single holder of the requested data.
system.membus.snoop_filter.tot_requests         12364                       # Total number of requests made to the snoop filter.
system.membus.snoop_filter.tot_snoops               0                       # Total number of snoops made to the snoop filter.
system.clk_domain.clock                          1000                       # Clock period in ticks
system.clk_domain.voltage_domain.voltage            1                       # Voltage in Volts
system.cpu.dcache.demand_hits::.cpu.data    243143526                       # number of demand (read+write) hits
system.cpu.dcache.demand_hits::total        243143526                       # number of demand (read+write) hits
system.cpu.dcache.overall_hits::.cpu.data    243143526                       # number of overall hits
system.cpu.dcache.overall_hits::total       243143526                       # number of overall hits
system.cpu.dcache.demand_misses::.cpu.data      1512015                       # number of demand (read+write) misses
system.cpu.dcache.demand_misses::total        1512015                       # number of demand (read+write) misses
system.cpu.dcache.overall_misses::.cpu.data      1512015                       # number of overall misses
system.cpu.dcache.overall_misses::total       1512015                       # number of overall misses
system.cpu.dcache.demand_miss_latency::.cpu.data  39853882000                       # number of demand (read+write) miss cycles
system.cpu.dcache.demand_miss_latency::total  39853882000                       # number of demand (read+write) miss cycles
system.cpu.dcache.overall_miss_latency::.cpu.data  39853882000                       # number of overall miss cycles
system.cpu.dcache.overall_miss_latency::total  39853882000                       # number of overall miss cycles
system.cpu.dcache.demand_accesses::.cpu.data    244655541                       # number of demand (read+write) accesses
system.cpu.dcache.demand_accesses::total    244655541                       # number of demand (read+write) accesses
system.cpu.dcache.overall_accesses::.cpu.data    244655541                       # number of overall (read+write) accesses
system.cpu.dcache.overall_accesses::total    244655541                       # number of overall (read+write) accesses
system.cpu.dcache.demand_miss_rate::.cpu.data     0.006180                       # miss rate for demand accesses
system.cpu.dcache.demand_miss_rate::total     0.006180                       # miss rate for demand accesses
system.cpu.dcache.overall_miss_rate::.cpu.data     0.006180                       # miss rate for overall accesses
system.cpu.dcache.overall_miss_rate::total     0.006180                       # miss rate for overall accesses
system.cpu.dcache.demand_avg_miss_latency::.cpu.data 26358.126077                       # average overall miss latency
system.cpu.dcache.demand_avg_miss_latency::total 26358.126077                       # average overall miss latency
system.cpu.dcache.overall_avg_miss_latency::.cpu.data 26358.126077                       # average overall miss latency
system.cpu.dcache.overall_avg_miss_latency::total 26358.126077                       # average overall miss latency
system.cpu.dcache.blocked_cycles::no_mshrs            0                       # number of cycles access was blocked
system.cpu.dcache.blocked_cycles::no_targets            0                       # number of cycles access was blocked
system.cpu.dcache.blocked::no_mshrs                 0                       # number of cycles access was blocked
system.cpu.dcache.blocked::no_targets               0                       # number of cycles access was blocked
system.cpu.dcache.avg_blocked_cycles::no_mshrs          nan                       # average number of cycles each access was blocked
system.cpu.dcache.avg_blocked_cycles::no_targets          nan                       # average number of cycles each access was blocked
system.cpu.dcache.writebacks::.writebacks      1505968                       # number of writebacks
system.cpu.dcache.writebacks::total           1505968                       # number of writebacks
system.cpu.dcache.demand_mshr_misses::.cpu.data      1512015                       # number of demand (read+write) MSHR misses
system.cpu.dcache.demand_mshr_misses::total      1512015                       # number of demand (read+write) MSHR misses
system.cpu.dcache.overall_mshr_misses::.cpu.data      1512015                       # number of overall MSHR misses
system.cpu.dcache.overall_mshr_misses::total      1512015                       # number of overall MSHR misses
system.cpu.dcache.demand_mshr_miss_latency::.cpu.data  36829852000                       # number of demand (read+write) MSHR miss cycles
system.cpu.dcache.demand_mshr_miss_latency::total  36829852000                       # number of demand (read+write) MSHR miss cycles
system.cpu.dcache.overall_mshr_miss_latency::.cpu.data  36829852000                       # number of overall MSHR miss cycles
system.cpu.dcache.overall_mshr_miss_latency::total  36829852000                       # number of overall MSHR miss cycles
system.cpu.dcache.demand_mshr_miss_rate::.cpu.data     0.006180                       # mshr miss rate for demand accesses
system.cpu.dcache.demand_mshr_miss_rate::total     0.006180                       # mshr miss rate for demand accesses
system.cpu.dcache.overall_mshr_miss_rate::.cpu.data     0.006180                       # mshr miss rate for overall accesses
system.cpu.dcache.overall_mshr_miss_rate::total     0.006180                       # mshr miss rate for overall accesses
system.cpu.dcache.demand_avg_mshr_miss_latency::.cpu.data 24358.126077                       # average overall mshr miss latency
system.cpu.dcache.demand_avg_mshr_miss_latency::total 24358.126077                       # average overall mshr miss latency
system.cpu.dcache.overall_avg_mshr_miss_latency::.cpu.data 24358.126077                       # average overall mshr miss latency
system.cpu.dcache.overall_avg_mshr_miss_latency::total 24358.126077                       # average overall mshr miss latency
system.cpu.dcache.replacements                1510991                       # number of replacements
system.cpu.dcache.ReadReq_hits::.cpu.data    149747004                       # number of ReadReq hits
system.cpu.dcache.ReadReq_hits::total       149747004                       # number of ReadReq hits
system.cpu.dcache.ReadReq_misses::.cpu.data      1308087                       # number of ReadReq misses
system.cpu.dcache.ReadReq_misses::total       1308087                       # number of ReadReq misses
system.cpu.dcache.ReadReq_miss_latency::.cpu.data  34052005000                       # number of ReadReq miss cycles
system.cpu.dcache.ReadReq_miss_latency::total  34052005000                       # number of ReadReq miss cycles
system.cpu.dcache.ReadReq_accesses::.cpu.data    151055091                       # number of ReadReq accesses(hits+misses)
system.cpu.dcache.ReadReq_accesses::total    151055091                       # number of ReadReq accesses(hits+misses)
system.cpu.dcache.ReadReq_miss_rate::.cpu.data     0.008660                       # miss rate for ReadReq accesses
system.cpu.dcache.ReadReq_miss_rate::total     0.008660                       # miss rate for ReadReq accesses
system.cpu.dcache.ReadReq_avg_miss_latency::.cpu.data 26031.911486                       # average ReadReq miss latency
system.cpu.dcache.ReadReq_avg_miss_latency::total 26031.911486                       # average ReadReq miss latency
system.cpu.dcache.ReadReq_mshr_misses::.cpu.data      1308087                       # number of ReadReq MSHR misses
system.cpu.dcache.ReadReq_mshr_misses::total      1308087                       # number of ReadReq MSHR misses
system.cpu.dcache.ReadReq_mshr_miss_latency::.cpu.data  31435831000                       # number of ReadReq MSHR miss cycles
system.cpu.dcache.ReadReq_mshr_miss_latency::total  31435831000                       # number of ReadReq MSHR miss cycles
system.cpu.dcache.ReadReq_mshr_miss_rate::.cpu.data     0.008660                       # mshr miss rate for ReadReq accesses
system.cpu.dcache.ReadReq_mshr_miss_rate::total     0.008660                       # mshr miss rate for ReadReq accesses
system.cpu.dcache.ReadReq_avg_mshr_miss_latency::.cpu.data 24031.911486                       # average ReadReq mshr miss latency
system.cpu.dcache.ReadReq_avg_mshr_miss_latency::total 24031.911486                       # average ReadReq mshr miss latency
system.cpu.dcache.WriteReq_hits::.cpu.data     93396522                       # number of WriteReq hits
system.cpu.dcache.WriteReq_hits::total       93396522                       # number of WriteReq hits
system.cpu.dcache.WriteReq_misses::.cpu.data       203928                       # number of WriteReq misses
system.cpu.dcache.WriteReq_misses::total       203928                       # number of WriteReq misses
system.cpu.dcache.WriteReq_miss_latency::.cpu.data   5801877000                       # number of WriteReq miss cycles
system.cpu.dcache.WriteReq_miss_latency::total   5801877000                       # number of WriteReq miss cycles
system.cpu.dcache.WriteReq_accesses::.cpu.data     93600450                       # number of WriteReq accesses(hits+misses)
system.cpu.dcache.WriteReq_accesses::total     93600450                       # number of WriteReq accesses(hits+misses)
system.cpu.dcache.WriteReq_miss_rate::.cpu.data     0.002179                       # miss rate for WriteReq accesses
system.cpu.dcache.WriteReq_miss_rate::total     0.002179                       # miss rate for WriteReq accesses
system.cpu.dcache.WriteReq_avg_miss_latency::.cpu.data 28450.614923                       # average WriteReq miss latency
system.cpu.dcache.WriteReq_avg_miss_latency::total 28450.614923                       # average WriteReq miss latency
system.cpu.dcache.WriteReq_mshr_misses::.cpu.data       203928                       # number of WriteReq MSHR misses
system.cpu.dcache.WriteReq_mshr_misses::total       203928                       # number of WriteReq MSHR misses
system.cpu.dcache.WriteReq_mshr_miss_latency::.cpu.data   5394021000                       # number of WriteReq MSHR miss cycles
system.cpu.dcache.WriteReq_mshr_miss_latency::total   5394021000                       # number of WriteReq MSHR miss cycles
system.cpu.dcache.WriteReq_mshr_miss_rate::.cpu.data     0.002179                       # mshr miss rate for WriteReq accesses
system.cpu.dcache.WriteReq_mshr_miss_rate::total     0.002179                       # mshr miss rate for WriteReq accesses
system.cpu.dcache.WriteReq_avg_mshr_miss_latency::.cpu.data 26450.614923                       # average WriteReq mshr miss latency
system.cpu.dcache.WriteReq_avg_mshr_miss_latency::total 26450.614923                       # average WriteReq mshr miss latency
system.cpu.dcache.power_state.pwrStateResidencyTicks::UNDEFINED 2288222690000                       # Cumulative time (in ticks) in various power states
system.cpu.dcache.tags.tagsinuse          1023.843945                       # Cycle average of tags in use
system.cpu.dcache.tags.total_refs           244655541                       # Total number of references to valid blocks.
system.cpu.dcache.tags.sampled_refs           1512015                       # Sample count of references to valid blocks.
system.cpu.dcache.tags.avg_refs            161.807615                       # Average number of references to valid blocks.
system.cpu.dcache.tags.warmup_cycle            224000                       # Cycle when the warmup percentage was hit.
system.cpu.dcache.tags.occ_blocks::.cpu.data  1023.843945                       # Average occupied blocks per requestor
system.cpu.dcache.tags.occ_percent::.cpu.data     0.999848                       # Average percentage of cache occupancy
system.cpu.dcache.tags.occ_percent::total     0.999848                       # Average percentage of cache occupancy
system.cpu.dcache.tags.occ_task_id_blocks::1024         1024                       # Occupied blocks per task id
system.cpu.dcache.tags.age_task_id_blocks_1024::0           28                       # Occupied blocks per task id
system.cpu.dcache.tags.age_task_id_blocks_1024::1           83                       # Occupied blocks per task id
system.cpu.dcache.tags.age_task_id_blocks_1024::2          498                       # Occupied blocks per task id
system.cpu.dcache.tags.age_task_id_blocks_1024::3          415                       # Occupied blocks per task id
system.cpu.dcache.tags.occ_task_id_percent::1024            1                       # Percentage of cache occupancy per task id
system.cpu.dcache.tags.tag_accesses         490823097                       # Number of tag accesses
system.cpu.dcache.tags.data_accesses        490823097                       # Number of data accesses
system.cpu.dcache.tags.power_state.pwrStateResidencyTicks::UNDEFINED 2288222690000                       # Cumulative time (in ticks) in various power states
system.cpu.dtb.rdAccesses                   151055092                       # TLB accesses on read requests
system.cpu.dtb.wrAccesses                    93600473                       # TLB accesses on write requests
system.cpu.dtb.rdMisses                          4202                       # TLB misses on read requests
system.cpu.dtb.wrMisses                          2551                       # TLB misses on write requests
system.cpu.dtb.walker.power_state.pwrStateResidencyTicks::UNDEFINED 2288222690000                       # Cumulative time (in ticks) in various power states
system.cpu.icache.demand_hits::.cpu.inst    841887864                       # number of demand (read+write) hits
system.cpu.icache.demand_hits::total        841887864                       # number of demand (read+write) hits
system.cpu.icache.overall_hits::.cpu.inst    841887864                       # number of overall hits
system.cpu.icache.overall_hits::total       841887864                       # number of overall hits
system.cpu.icache.demand_misses::.cpu.inst      3002717                       # number of demand (read+write) misses
system.cpu.icache.demand_misses::total        3002717                       # number of demand (read+write) misses
system.cpu.icache.overall_misses::.cpu.inst      3002717                       # number of overall misses
system.cpu.icache.overall_misses::total       3002717                       # number of overall misses
system.cpu.icache.demand_miss_latency::.cpu.inst  78306096000                       # number of demand (read+write) miss cycles
system.cpu.icache.demand_miss_latency::total  78306096000                       # number of demand (read+write) miss cycles
system.cpu.icache.overall_miss_latency::.cpu.inst  78306096000                       # number of overall miss cycles
system.cpu.icache.overall_miss_latency::total  78306096000                       # number of overall miss cycles
system.cpu.icache.demand_accesses::.cpu.inst    844890581                       # number of demand (read+write) accesses
system.cpu.icache.demand_accesses::total    844890581                       # number of demand (read+write) accesses
system.cpu.icache.overall_accesses::.cpu.inst    844890581                       # number of overall (read+write) accesses
system.cpu.icache.overall_accesses::total    844890581                       # number of overall (read+write) accesses
system.cpu.icache.demand_miss_rate::.cpu.inst     0.003554                       # miss rate for demand accesses
system.cpu.icache.demand_miss_rate::total     0.003554                       # miss rate for demand accesses
system.cpu.icache.overall_miss_rate::.cpu.inst     0.003554                       # miss rate for overall accesses
system.cpu.icache.overall_miss_rate::total     0.003554                       # miss rate for overall accesses
system.cpu.icache.demand_avg_miss_latency::.cpu.inst 26078.413650                       # average overall miss latency
system.cpu.icache.demand_avg_miss_latency::total 26078.413650                       # average overall miss latency
system.cpu.icache.overall_avg_miss_latency::.cpu.inst 26078.413650                       # average overall miss latency
system.cpu.icache.overall_avg_miss_latency::total 26078.413650                       # average overall miss latency
system.cpu.icache.blocked_cycles::no_mshrs            0                       # number of cycles access was blocked
system.cpu.icache.blocked_cycles::no_targets            0                       # number of cycles access was blocked
system.cpu.icache.blocked::no_mshrs                 0                       # number of cycles access was blocked
system.cpu.icache.blocked::no_targets               0                       # number of cycles access was blocked
system.cpu.icache.avg_blocked_cycles::no_mshrs          nan                       # average number of cycles each access was blocked
system.cpu.icache.avg_blocked_cycles::no_targets          nan                       # average number of cycles each access was blocked
system.cpu.icache.demand_mshr_misses::.cpu.inst      3002717                       # number of demand (read+write) MSHR misses
system.cpu.icache.demand_mshr_misses::total      3002717                       # number of demand (read+write) MSHR misses
system.cpu.icache.overall_mshr_misses::.cpu.inst      3002717                       # number of overall MSHR misses
system.cpu.icache.overall_mshr_misses::total      3002717                       # number of overall MSHR misses
system.cpu.icache.demand_mshr_miss_latency::.cpu.inst  72300662000                       # number of demand (read+write) MSHR miss cycles
system.cpu.icache.demand_mshr_miss_latency::total  72300662000                       # number of demand (read+write) MSHR miss cycles
system.cpu.icache.overall_mshr_miss_latency::.cpu.inst  72300662000                       # number of overall MSHR miss cycles
system.cpu.icache.overall_mshr_miss_latency::total  72300662000                       # number of overall MSHR miss cycles
system.cpu.icache.demand_mshr_miss_rate::.cpu.inst     0.003554                       # mshr miss rate for demand accesses
system.cpu.icache.demand_mshr_miss_rate::total     0.003554                       # mshr miss rate for demand accesses
system.cpu.icache.overall_mshr_miss_rate::.cpu.inst     0.003554                       # mshr miss rate for overall accesses
system.cpu.icache.overall_mshr_miss_rate::total     0.003554                       # mshr miss rate for overall accesses
system.cpu.icache.demand_avg_mshr_miss_latency::.cpu.inst 24078.413650                       # average overall mshr miss latency
system.cpu.icache.demand_avg_mshr_miss_latency::total 24078.413650                       # average overall mshr miss latency
system.cpu.icache.overall_avg_mshr_miss_latency::.cpu.inst 24078.413650                       # average overall mshr miss latency
system.cpu.icache.overall_avg_mshr_miss_latency::total 24078.413650                       # average overall mshr miss latency
system.cpu.icache.replacements                3002461                       # number of replacements
system.cpu.icache.ReadReq_hits::.cpu.inst    841887864                       # number of ReadReq hits
system.cpu.icache.ReadReq_hits::total       841887864                       # number of ReadReq hits
system.cpu.icache.ReadReq_misses::.cpu.inst      3002717                       # number of ReadReq misses
system.cpu.icache.ReadReq_misses::total       3002717                       # number of ReadReq misses
system.cpu.icache.ReadReq_miss_latency::.cpu.inst  78306096000                       # number of ReadReq miss cycles
system.cpu.icache.ReadReq_miss_latency::total  78306096000                       # number of ReadReq miss cycles
system.cpu.icache.ReadReq_accesses::.cpu.inst    844890581                       # number of ReadReq accesses(hits+misses)
system.cpu.icache.ReadReq_accesses::total    844890581                       # number of ReadReq accesses(hits+misses)
system.cpu.icache.ReadReq_miss_rate::.cpu.inst     0.003554                       # miss rate for ReadReq accesses
system.cpu.icache.ReadReq_miss_rate::total     0.003554                       # miss rate for ReadReq accesses
system.cpu.icache.ReadReq_avg_miss_latency::.cpu.inst 26078.413650                       # average ReadReq miss latency
system.cpu.icache.ReadReq_avg_miss_latency::total 26078.413650                       # average ReadReq miss latency
system.cpu.icache.ReadReq_mshr_misses::.cpu.inst      3002717                       # number of ReadReq MSHR misses
system.cpu.icache.ReadReq_mshr_misses::total      3002717                       # number of ReadReq MSHR misses
system.cpu.icache.ReadReq_mshr_miss_latency::.cpu.inst  72300662000                       # number of ReadReq MSHR miss cycles
system.cpu.icache.ReadReq_mshr_miss_latency::total  72300662000                       # number of ReadReq MSHR miss cycles
system.cpu.icache.ReadReq_mshr_miss_rate::.cpu.inst     0.003554                       # mshr miss rate for ReadReq accesses
system.cpu.icache.ReadReq_mshr_miss_rate::total     0.003554                       # mshr miss rate for ReadReq accesses
system.cpu.icache.ReadReq_avg_mshr_miss_latency::.cpu.inst 24078.413650                       # average ReadReq mshr miss latency
system.cpu.icache.ReadReq_avg_mshr_miss_latency::total 24078.413650                       # average ReadReq mshr miss latency
system.cpu.icache.power_state.pwrStateResidencyTicks::UNDEFINED 2288222690000                       # Cumulative time (in ticks) in various power states
system.cpu.icache.tags.tagsinuse           255.994372                       # Cycle average of tags in use
system.cpu.icache.tags.total_refs           844890581                       # Total number of references to valid blocks.
system.cpu.icache.tags.sampled_refs           3002717                       # Sample count of references to valid blocks.
system.cpu.icache.tags.avg_refs            281.375361                       # Average number of references to valid blocks.
system.cpu.icache.tags.warmup_cycle            107000                       # Cycle when the warmup percentage was hit.
system.cpu.icache.tags.occ_blocks::.cpu.inst   255.994372                       # Average occupied blocks per requestor
system.cpu.icache.tags.occ_percent::.cpu.inst     0.999978                       # Average percentage of cache occupancy
system.cpu.icache.tags.occ_percent::total     0.999978                       # Average percentage of cache occupancy
system.cpu.icache.tags.occ_task_id_blocks::1024          256                       # Occupied blocks per task id
system.cpu.icache.tags.age_task_id_blocks_1024::0           35                       # Occupied blocks per task id
system.cpu.icache.tags.age_task_id_blocks_1024::1          109                       # Occupied blocks per task id
system.cpu.icache.tags.age_task_id_blocks_1024::2          104                       # Occupied blocks per task id
system.cpu.icache.tags.age_task_id_blocks_1024::3            8                       # Occupied blocks per task id
system.cpu.icache.tags.occ_task_id_percent::1024            1                       # Percentage of cache occupancy per task id
system.cpu.icache.tags.tag_accesses        1692783879                       # Number of tag accesses
system.cpu.icache.tags.data_accesses       1692783879                       # Number of data accesses
system.cpu.icache.tags.power_state.pwrStateResidencyTicks::UNDEFINED 2288222690000                       # Cumulative time (in ticks) in various power states
system.cpu.interrupts.clk_domain.clock          16000                       # Clock period in ticks
system.cpu.itb.rdAccesses                           0                       # TLB accesses on read requests
system.cpu.itb.wrAccesses                   844890581                       # TLB accesses on write requests
system.cpu.itb.rdMisses                             0                       # TLB misses on read requests
system.cpu.itb.wrMisses                           158                       # TLB misses on write requests
system.cpu.itb.walker.power_state.pwrStateResidencyTicks::UNDEFINED 2288222690000                       # Cumulative time (in ticks) in various power states
system.cpu.power_state.pwrStateResidencyTicks::ON 2288222690000                       # Cumulative time (in ticks) in various power states
system.cpu.thread_0.numInsts                        0                       # Number of Instructions committed
system.cpu.thread_0.numOps                          0                       # Number of Ops committed
system.cpu.thread_0.numMemRefs                      0                       # Number of Memory References
system.l2bus.trans_dist::ReadResp             4310804                       # Transaction distribution
system.l2bus.trans_dist::WritebackDirty       1506732                       # Transaction distribution
system.l2bus.trans_dist::CleanEvict           3008991                       # Transaction distribution
system.l2bus.trans_dist::ReadExReq             203928                       # Transaction distribution
system.l2bus.trans_dist::ReadExResp            203928                       # Transaction distribution
system.l2bus.trans_dist::ReadSharedReq        4310804                       # Transaction distribution
system.l2bus.pkt_count_system.cpu.icache.mem_side_port::system.l2cache.cpu_side_port      9007895                       # Packet count per connected requestor and responder (bytes)
system.l2bus.pkt_count_system.cpu.dcache.mem_side_port::system.l2cache.cpu_side_port      4535021                       # Packet count per connected requestor and responder (bytes)
system.l2bus.pkt_count::total                13542916                       # Packet count per connected requestor and responder (bytes)
system.l2bus.pkt_size_system.cpu.icache.mem_side_port::system.l2cache.cpu_side_port    192173888                       # Cumulative packet size per connected requestor and responder (bytes)
system.l2bus.pkt_size_system.cpu.dcache.mem_side_port::system.l2cache.cpu_side_port    193150912                       # Cumulative packet size per connected requestor and responder (bytes)
system.l2bus.pkt_size::total                385324800                       # Cumulative packet size per connected requestor and responder (bytes)
system.l2bus.snoops                              2271                       # Total snoops (count)
system.l2bus.snoopTraffic                       48896                       # Total snoop traffic (bytes)
system.l2bus.snoop_fanout::samples            4517003                       # Request fanout histogram
system.l2bus.snoop_fanout::mean              0.000032                       # Request fanout histogram
system.l2bus.snoop_fanout::stdev             0.005626                       # Request fanout histogram
system.l2bus.snoop_fanout::underflows               0      0.00%      0.00% # Request fanout histogram
system.l2bus.snoop_fanout::0                  4516860    100.00%    100.00% # Request fanout histogram
system.l2bus.snoop_fanout::1                      143      0.00%    100.00% # Request fanout histogram
system.l2bus.snoop_fanout::2                        0      0.00%    100.00% # Request fanout histogram
system.l2bus.snoop_fanout::overflows                0      0.00%    100.00% # Request fanout histogram
system.l2bus.snoop_fanout::min_value                0                       # Request fanout histogram
system.l2bus.snoop_fanout::max_value                1                       # Request fanout histogram
system.l2bus.snoop_fanout::total              4517003                       # Request fanout histogram
system.l2bus.power_state.pwrStateResidencyTicks::UNDEFINED 2288222690000                       # Cumulative time (in ticks) in various power states
system.l2bus.reqLayer0.occupancy          12040120000                       # Layer occupancy (ticks)
system.l2bus.reqLayer0.utilization                0.5                       # Layer utilization (%)
system.l2bus.respLayer0.occupancy          9008151000                       # Layer occupancy (ticks)
system.l2bus.respLayer0.utilization               0.4                       # Layer utilization (%)
system.l2bus.respLayer1.occupancy          4536045000                       # Layer occupancy (ticks)
system.l2bus.respLayer1.utilization               0.2                       # Layer utilization (%)
system.l2cache.demand_hits::.cpu.inst         2999682                       # number of demand (read+write) hits
system.l2cache.demand_hits::.cpu.data         1504883                       # number of demand (read+write) hits
system.l2cache.demand_hits::total             4504565                       # number of demand (read+write) hits
system.l2cache.overall_hits::.cpu.inst        2999682                       # number of overall hits
system.l2cache.overall_hits::.cpu.data        1504883                       # number of overall hits
system.l2cache.overall_hits::total            4504565                       # number of overall hits
system.l2cache.demand_misses::.cpu.inst          3035                       # number of demand (read+write) misses
system.l2cache.demand_misses::.cpu.data          7132                       # number of demand (read+write) misses
system.l2cache.demand_misses::total             10167                       # number of demand (read+write) misses
system.l2cache.overall_misses::.cpu.inst         3035                       # number of overall misses
system.l2cache.overall_misses::.cpu.data         7132                       # number of overall misses
system.l2cache.overall_misses::total            10167                       # number of overall misses
system.l2cache.demand_miss_latency::.cpu.inst    298649000                       # number of demand (read+write) miss cycles
system.l2cache.demand_miss_latency::.cpu.data    682651000                       # number of demand (read+write) miss cycles
system.l2cache.demand_miss_latency::total    981300000                       # number of demand (read+write) miss cycles
system.l2cache.overall_miss_latency::.cpu.inst    298649000                       # number of overall miss cycles
system.l2cache.overall_miss_latency::.cpu.data    682651000                       # number of overall miss cycles
system.l2cache.overall_miss_latency::total    981300000                       # number of overall miss cycles
system.l2cache.demand_accesses::.cpu.inst      3002717                       # number of demand (read+write) accesses
system.l2cache.demand_accesses::.cpu.data      1512015                       # number of demand (read+write) accesses
system.l2cache.demand_accesses::total         4514732                       # number of demand (read+write) accesses
system.l2cache.overall_accesses::.cpu.inst      3002717                       # number of overall (read+write) accesses
system.l2cache.overall_accesses::.cpu.data      1512015                       # number of overall (read+write) accesses
system.l2cache.overall_accesses::total        4514732                       # number of overall (read+write) accesses
system.l2cache.demand_miss_rate::.cpu.inst     0.001011                       # miss rate for demand accesses
system.l2cache.demand_miss_rate::.cpu.data     0.004717                       # miss rate for demand accesses
system.l2cache.demand_miss_rate::total       0.002252                       # miss rate for demand accesses
system.l2cache.overall_miss_rate::.cpu.inst     0.001011                       # miss rate for overall accesses
system.l2cache.overall_miss_rate::.cpu.data     0.004717                       # miss rate for overall accesses
system.l2cache.overall_miss_rate::total      0.002252                       # miss rate for overall accesses
system.l2cache.demand_avg_miss_latency::.cpu.inst 98401.647446                       # average overall miss latency
system.l2cache.demand_avg_miss_latency::.cpu.data 95716.629277                       # average overall miss latency
system.l2cache.demand_avg_miss_latency::total 96518.146946                       # average overall miss latency
system.l2cache.overall_avg_miss_latency::.cpu.inst 98401.647446                       # average overall miss latency
system.l2cache.overall_avg_miss_latency::.cpu.data 95716.629277                       # average overall miss latency
system.l2cache.overall_avg_miss_latency::total 96518.146946                       # average overall miss latency
system.l2cache.blocked_cycles::no_mshrs             0                       # number of cycles access was blocked
system.l2cache.blocked_cycles::no_targets            0                       # number of cycles access was blocked
system.l2cache.blocked::no_mshrs                    0                       # number of cycles access was blocked
system.l2cache.blocked::no_targets                  0                       # number of cycles access was blocked
system.l2cache.avg_blocked_cycles::no_mshrs          nan                       # average number of cycles each access was blocked
system.l2cache.avg_blocked_cycles::no_targets          nan                       # average number of cycles each access was blocked
system.l2cache.writebacks::.writebacks            764                       # number of writebacks
system.l2cache.writebacks::total                  764                       # number of writebacks
system.l2cache.demand_mshr_misses::.cpu.inst         3035                       # number of demand (read+write) MSHR misses
system.l2cache.demand_mshr_misses::.cpu.data         7132                       # number of demand (read+write) MSHR misses
system.l2cache.demand_mshr_misses::total        10167                       # number of demand (read+write) MSHR misses
system.l2cache.overall_mshr_misses::.cpu.inst         3035                       # number of overall MSHR misses
system.l2cache.overall_mshr_misses::.cpu.data         7132                       # number of overall MSHR misses
system.l2cache.overall_mshr_misses::total        10167                       # number of overall MSHR misses
system.l2cache.demand_mshr_miss_latency::.cpu.inst    237949000                       # number of demand (read+write) MSHR miss cycles
system.l2cache.demand_mshr_miss_latency::.cpu.data    540011000                       # number of demand (read+write) MSHR miss cycles
system.l2cache.demand_mshr_miss_latency::total    777960000                       # number of demand (read+write) MSHR miss cycles
system.l2cache.overall_mshr_miss_latency::.cpu.inst    237949000                       # number of overall MSHR miss cycles
system.l2cache.overall_mshr_miss_latency::.cpu.data    540011000                       # number of overall MSHR miss cycles
system.l2cache.overall_mshr_miss_latency::total    777960000                       # number of overall MSHR miss cycles
system.l2cache.demand_mshr_miss_rate::.cpu.inst     0.001011                       # mshr miss rate for demand accesses
system.l2cache.demand_mshr_miss_rate::.cpu.data     0.004717                       # mshr miss rate for demand accesses
system.l2cache.demand_mshr_miss_rate::total     0.002252                       # mshr miss rate for demand accesses
system.l2cache.overall_mshr_miss_rate::.cpu.inst     0.001011                       # mshr miss rate for overall accesses
system.l2cache.overall_mshr_miss_rate::.cpu.data     0.004717                       # mshr miss rate for overall accesses
system.l2cache.overall_mshr_miss_rate::total     0.002252                       # mshr miss rate for overall accesses
system.l2cache.demand_avg_mshr_miss_latency::.cpu.inst 78401.647446                       # average overall mshr miss latency
system.l2cache.demand_avg_mshr_miss_latency::.cpu.data 75716.629277                       # average overall mshr miss latency
system.l2cache.demand_avg_mshr_miss_latency::total 76518.146946                       # average overall mshr miss latency
system.l2cache.overall_avg_mshr_miss_latency::.cpu.inst 78401.647446                       # average overall mshr miss latency
system.l2cache.overall_avg_mshr_miss_latency::.cpu.data 75716.629277                       # average overall mshr miss latency
system.l2cache.overall_avg_mshr_miss_latency::total 76518.146946                       # average overall mshr miss latency
system.l2cache.replacements                      2142                       # number of replacements
system.l2cache.WritebackDirty_hits::.writebacks      1505967                       # number of WritebackDirty hits
system.l2cache.WritebackDirty_hits::total      1505967                       # number of WritebackDirty hits
system.l2cache.WritebackDirty_misses::.writebacks            1                       # number of WritebackDirty misses
system.l2cache.WritebackDirty_misses::total            1                       # number of WritebackDirty misses
system.l2cache.WritebackDirty_accesses::.writebacks      1505968                       # number of WritebackDirty accesses(hits+misses)
system.l2cache.WritebackDirty_accesses::total      1505968                       # number of WritebackDirty accesses(hits+misses)
system.l2cache.WritebackDirty_miss_rate::.writebacks     0.000001                       # miss rate for WritebackDirty accesses
system.l2cache.WritebackDirty_miss_rate::total     0.000001                       # miss rate for WritebackDirty accesses
system.l2cache.WritebackDirty_mshr_misses::.writebacks            1                       # number of WritebackDirty MSHR misses
system.l2cache.WritebackDirty_mshr_misses::total            1                       # number of WritebackDirty MSHR misses
system.l2cache.WritebackDirty_mshr_miss_rate::.writebacks     0.000001                       # mshr miss rate for WritebackDirty accesses
system.l2cache.WritebackDirty_mshr_miss_rate::total     0.000001                       # mshr miss rate for WritebackDirty accesses
system.l2cache.CleanEvict_mshr_misses::.writebacks           68                       # number of CleanEvict MSHR misses
system.l2cache.CleanEvict_mshr_misses::total           68                       # number of CleanEvict MSHR misses
system.l2cache.CleanEvict_mshr_miss_rate::.writebacks          inf                       # mshr miss rate for CleanEvict accesses
system.l2cache.CleanEvict_mshr_miss_rate::total          inf                       # mshr miss rate for CleanEvict accesses
system.l2cache.ReadExReq_hits::.cpu.data       197248                       # number of ReadExReq hits
system.l2cache.ReadExReq_hits::total           197248                       # number of ReadExReq hits
system.l2cache.ReadExReq_misses::.cpu.data         6680                       # number of ReadExReq misses
system.l2cache.ReadExReq_misses::total           6680                       # number of ReadExReq misses
system.l2cache.ReadExReq_miss_latency::.cpu.data    637180000                       # number of ReadExReq miss cycles
system.l2cache.ReadExReq_miss_latency::total    637180000                       # number of ReadExReq miss cycles
system.l2cache.ReadExReq_accesses::.cpu.data       203928                       # number of ReadExReq accesses(hits+misses)
system.l2cache.ReadExReq_accesses::total       203928                       # number of ReadExReq accesses(hits+misses)
system.l2cache.ReadExReq_miss_rate::.cpu.data     0.032757                       # miss rate for ReadExReq accesses
system.l2cache.ReadExReq_miss_rate::total     0.032757                       # miss rate for ReadExReq accesses
system.l2cache.ReadExReq_avg_miss_latency::.cpu.data 95386.227545                       # average ReadExReq miss latency
system.l2cache.ReadExReq_avg_miss_latency::total 95386.227545                       # average ReadExReq miss latency
system.l2cache.ReadExReq_mshr_misses::.cpu.data         6680                       # number of ReadExReq MSHR misses
system.l2cache.ReadExReq_mshr_misses::total         6680                       # number of ReadExReq MSHR misses
system.l2cache.ReadExReq_mshr_miss_latency::.cpu.data    503580000                       # number of ReadExReq MSHR miss cycles
system.l2cache.ReadExReq_mshr_miss_latency::total    503580000                       # number of ReadExReq MSHR miss cycles
system.l2cache.ReadExReq_mshr_miss_rate::.cpu.data     0.032757                       # mshr miss rate for ReadExReq accesses
system.l2cache.ReadExReq_mshr_miss_rate::total     0.032757                       # mshr miss rate for ReadExReq accesses
system.l2cache.ReadExReq_avg_mshr_miss_latency::.cpu.data 75386.227545                       # average ReadExReq mshr miss latency
system.l2cache.ReadExReq_avg_mshr_miss_latency::total 75386.227545                       # average ReadExReq mshr miss latency
system.l2cache.ReadSharedReq_hits::.cpu.inst      2999682                       # number of ReadSharedReq hits
system.l2cache.ReadSharedReq_hits::.cpu.data      1307635                       # number of ReadSharedReq hits
system.l2cache.ReadSharedReq_hits::total      4307317                       # number of ReadSharedReq hits
system.l2cache.ReadSharedReq_misses::.cpu.inst         3035                       # number of ReadSharedReq misses
system.l2cache.ReadSharedReq_misses::.cpu.data          452                       # number of ReadSharedReq misses
system.l2cache.ReadSharedReq_misses::total         3487                       # number of ReadSharedReq misses
system.l2cache.ReadSharedReq_miss_latency::.cpu.inst    298649000                       # number of ReadSharedReq miss cycles
system.l2cache.ReadSharedReq_miss_latency::.cpu.data     45471000                       # number of ReadSharedReq miss cycles
system.l2cache.ReadSharedReq_miss_latency::total    344120000                       # number of ReadSharedReq miss cycles
system.l2cache.ReadSharedReq_accesses::.cpu.inst      3002717                       # number of ReadSharedReq accesses(hits+misses)
system.l2cache.ReadSharedReq_accesses::.cpu.data      1308087                       # number of ReadSharedReq accesses(hits+misses)
system.l2cache.ReadSharedReq_accesses::total      4310804                       # number of ReadSharedReq accesses(hits+misses)
system.l2cache.ReadSharedReq_miss_rate::.cpu.inst     0.001011                       # miss rate for ReadSharedReq accesses
system.l2cache.ReadSharedReq_miss_rate::.cpu.data     0.000346                       # miss rate for ReadSharedReq accesses
system.l2cache.ReadSharedReq_miss_rate::total     0.000809                       # miss rate for ReadSharedReq accesses
system.l2cache.ReadSharedReq_avg_miss_latency::.cpu.inst 98401.647446                       # average ReadSharedReq miss latency
system.l2cache.ReadSharedReq_avg_miss_latency::.cpu.data 100599.557522                       # average ReadSharedReq miss latency
system.l2cache.ReadSharedReq_avg_miss_latency::total 98686.550043                       # average ReadSharedReq miss latency
system.l2cache.ReadSharedReq_mshr_misses::.cpu.inst         3035                       # number of ReadSharedReq MSHR misses
system.l2cache.ReadSharedReq_mshr_misses::.cpu.data          452                       # number of ReadSharedReq MSHR misses
system.l2cache.ReadSharedReq_mshr_misses::total         3487                       # number of ReadSharedReq MSHR misses
system.l2cache.ReadSharedReq_mshr_miss_latency::.cpu.inst    237949000                       # number of ReadSharedReq MSHR miss cycles
system.l2cache.ReadSharedReq_mshr_miss_latency::.cpu.data     36431000                       # number of ReadSharedReq MSHR miss cycles
system.l2cache.ReadSharedReq_mshr_miss_latency::total    274380000                       # number of ReadSharedReq MSHR miss cycles
system.l2cache.ReadSharedReq_mshr_miss_rate::.cpu.inst     0.001011                       # mshr miss rate for ReadSharedReq accesses
system.l2cache.ReadSharedReq_mshr_miss_rate::.cpu.data     0.000346                       # mshr miss rate for ReadSharedReq accesses
system.l2cache.ReadSharedReq_mshr_miss_rate::total     0.000809                       # mshr miss rate for ReadSharedReq accesses
system.l2cache.ReadSharedReq_avg_mshr_miss_latency::.cpu.inst 78401.647446                       # average ReadSharedReq mshr miss latency
system.l2cache.ReadSharedReq_avg_mshr_miss_latency::.cpu.data 80599.557522                       # average ReadSharedReq mshr miss latency
system.l2cache.ReadSharedReq_avg_mshr_miss_latency::total 78686.550043                       # average ReadSharedReq mshr miss latency
system.l2cache.power_state.pwrStateResidencyTicks::UNDEFINED 2288222690000                       # Cumulative time (in ticks) in various power states
system.l2cache.replacement_policy.totalBypasses          130                       # Total number of cache bypasses
system.l2cache.replacement_policy.effectiveBypasses            0                       # Bypasses that correctly skipped non-reused blocks
system.l2cache.replacement_policy.ineffectiveBypasses           66                       # Bypasses that incorrectly skipped requested blocks
system.l2cache.replacement_policy.virtualEffectiveBypasses           13                       # Virtual bypasses correctly predicting non-reused blocks
system.l2cache.replacement_policy.virtualIneffectiveBypasses          425                       # Virtual bypasses incorrectly predicting requested blocks
system.l2cache.tags.tagsinuse             7693.548342                       # Cycle average of tags in use
system.l2cache.tags.total_refs                9027986                       # Total number of references to valid blocks.
system.l2cache.tags.sampled_refs                10106                       # Sample count of references to valid blocks.
system.l2cache.tags.avg_refs               893.329309                       # Average number of references to valid blocks.
system.l2cache.tags.warmup_cycle                86000                       # Cycle when the warmup percentage was hit.
system.l2cache.tags.occ_blocks::.writebacks    61.730650                       # Average occupied blocks per requestor
system.l2cache.tags.occ_blocks::.cpu.inst  1852.462813                       # Average occupied blocks per requestor
system.l2cache.tags.occ_blocks::.cpu.data  5779.354879                       # Average occupied blocks per requestor
system.l2cache.tags.occ_percent::.writebacks     0.007535                       # Average percentage of cache occupancy
system.l2cache.tags.occ_percent::.cpu.inst     0.226131                       # Average percentage of cache occupancy
system.l2cache.tags.occ_percent::.cpu.data     0.705488                       # Average percentage of cache occupancy
system.l2cache.tags.occ_percent::total       0.939154                       # Average percentage of cache occupancy
system.l2cache.tags.occ_task_id_blocks::1024         7964                       # Occupied blocks per task id
system.l2cache.tags.age_task_id_blocks_1024::0           56                       # Occupied blocks per task id
system.l2cache.tags.age_task_id_blocks_1024::1          106                       # Occupied blocks per task id
system.l2cache.tags.age_task_id_blocks_1024::2          533                       # Occupied blocks per task id
system.l2cache.tags.age_task_id_blocks_1024::3          718                       # Occupied blocks per task id
system.l2cache.tags.age_task_id_blocks_1024::4         6551                       # Occupied blocks per task id
system.l2cache.tags.occ_task_id_percent::1024     0.972168                       # Percentage of cache occupancy per task id
system.l2cache.tags.tag_accesses             72235578                       # Number of tag accesses
system.l2cache.tags.data_accesses            72235578                       # Number of data accesses
system.l2cache.tags.power_state.pwrStateResidencyTicks::UNDEFINED 2288222690000                       # Cumulative time (in ticks) in various power states
system.mem_ctrl.avgPriority_.writebacks::samples       765.00                       # Average QoS priority value for accepted requests
system.mem_ctrl.avgPriority_.cpu.inst::samples      3035.00                       # Average QoS priority value for accepted requests
system.mem_ctrl.avgPriority_.cpu.data::samples      7092.00                       # Average QoS priority value for accepted requests
system.mem_ctrl.priorityMinLatency       0.000000018750                       # per QoS priority minimum request to response latency (s)
system.mem_ctrl.priorityMaxLatency       4.456415622500                       # per QoS priority maximum request to response latency (s)
system.mem_ctrl.numReadWriteTurnArounds            44                       # Number of turnarounds from READ to WRITE
system.mem_ctrl.numWriteReadTurnArounds            44                       # Number of turnarounds from WRITE to READ
system.mem_ctrl.numStayReadState               608747                       # Number of times bus staying in READ state
system.mem_ctrl.numStayWriteState                 697                       # Number of times bus staying in WRITE state
system.mem_ctrl.readReqs                        10167                       # Number of read requests accepted
system.mem_ctrl.writeReqs                         765                       # Number of write requests accepted
system.mem_ctrl.readBursts                      10167                       # Number of controller read bursts, including those serviced by the write queue
system.mem_ctrl.writeBursts                       765                       # Number of controller write bursts, including those merged in the write queue
system.mem_ctrl.servicedByWrQ                      40                       # Number of controller read bursts serviced by the write queue
system.mem_ctrl.mergedWrBursts                      0                       # Number of controller write bursts merged with an existing one
system.mem_ctrl.neitherReadNorWriteReqs             0                       # Number of requests that are neither read nor write
system.mem_ctrl.avgRdQLen                        1.00                       # Average read queue length when enqueuing
system.mem_ctrl.avgWrQLen                       21.13                       # Average write queue length when enqueuing
system.mem_ctrl.numRdRetry                          0                       # Number of times read queue was full causing retry
system.mem_ctrl.numWrRetry                          0                       # Number of times write queue was full causing retry
system.mem_ctrl.readPktSize::0                      0                       # Read request sizes (log2)
system.mem_ctrl.readPktSize::1                      0                       # Read request sizes (log2)
system.mem_ctrl.readPktSize::2                      0                       # Read request sizes (log2)
system.mem_ctrl.readPktSize::3                      0                       # Read request sizes (log2)
system.mem_ctrl.readPktSize::4                      0                       # Read request sizes (log2)
system.mem_ctrl.readPktSize::5                      0                       # Read request sizes (log2)
system.mem_ctrl.readPktSize::6                  10167                       # Read request sizes (log2)
system.mem_ctrl.writePktSize::0                     0                       # Write request sizes (log2)
system.mem_ctrl.writePktSize::1                     0                       # Write request sizes (log2)
system.mem_ctrl.writePktSize::2                     0                       # Write request sizes (log2)
system.mem_ctrl.writePktSize::3                     0                       # Write request sizes (log2)
system.mem_ctrl.writePktSize::4                     0                       # Write request sizes (log2)
system.mem_ctrl.writePktSize::5                     0                       # Write request sizes (log2)
system.mem_ctrl.writePktSize::6                   765                       # Write request sizes (log2)
system.mem_ctrl.rdQLenPdf::0                    10127                       # What read queue length does an incoming req see
system.mem_ctrl.rdQLenPdf::1                        0                       # What read queue length does an incoming req see
system.mem_ctrl.rdQLenPdf::2                        0                       # What read queue length does an incoming req see
system.mem_ctrl.rdQLenPdf::3                        0                       # What read queue length does an incoming req see
system.mem_ctrl.rdQLenPdf::4                        0                       # What read queue length does an incoming req see
system.mem_ctrl.rdQLenPdf::5                        0                       # What read queue length does an incoming req see
system.mem_ctrl.rdQLenPdf::6                        0                       # What read queue length does an incoming req see
system.mem_ctrl.rdQLenPdf::7                        0                       # What read queue length does an incoming req see
system.mem_ctrl.rdQLenPdf::8                        0                       # What read queue length does an incoming req see
system.mem_ctrl.rdQLenPdf::9                        0                       # What read queue length does an incoming req see
system.mem_ctrl.rdQLenPdf::10                       0                       # What read queue length does an incoming req see
system.mem_ctrl.rdQLenPdf::11                       0                       # What read queue length does an incoming req see
system.mem_ctrl.rdQLenPdf::12                       0                       # What read queue length does an incoming req see
system.mem_ctrl.rdQLenPdf::13                       0                       # What read queue length does an incoming req see
system.mem_ctrl.rdQLenPdf::14                       0                       # What read queue length does an incoming req see
system.mem_ctrl.rdQLenPdf::15                       0                       # What read queue length does an incoming req see
system.mem_ctrl.rdQLenPdf::16                       0                       # What read queue length does an incoming req see
system.mem_ctrl.rdQLenPdf::17                       0                       # What read queue length does an incoming req see
system.mem_ctrl.rdQLenPdf::18                       0                       # What read queue length does an incoming req see
system.mem_ctrl.rdQLenPdf::19                       0                       # What read queue length does an incoming req see
system.mem_ctrl.rdQLenPdf::20                       0                       # What read queue length does an incoming req see
system.mem_ctrl.rdQLenPdf::21                       0                       # What read queue length does an incoming req see
system.mem_ctrl.rdQLenPdf::22                       0                       # What read queue length does an incoming req see
system.mem_ctrl.rdQLenPdf::23                       0                       # What read queue length does an incoming req see
system.mem_ctrl.rdQLenPdf::24                       0                       # What read queue length does an incoming req see
system.mem_ctrl.rdQLenPdf::25                       0                       # What read queue length does an incoming req see
system.mem_ctrl.rdQLenPdf::26                       0                       # What read queue length does an incoming req see
system.mem_ctrl.rdQLenPdf::27                       0                       # What read queue length does an incoming req see
system.mem_ctrl.rdQLenPdf::28                       0                       # What read queue length does an incoming req see
system.mem_ctrl.rdQLenPdf::29                       0                       # What read queue length does an incoming req see
system.mem_ctrl.rdQLenPdf::30                       0                       # What read queue length does an incoming req see
system.mem_ctrl.rdQLenPdf::31                       0                       # What read queue length does an incoming req see
system.mem_ctrl.wrQLenPdf::0                        1                       # What write queue length does an incoming req see
system.mem_ctrl.wrQLenPdf::1                        1                       # What write queue length does an incoming req see
system.mem_ctrl.wrQLenPdf::2                        1                       # What write queue length does an incoming req see
system.mem_ctrl.wrQLenPdf::3                        1                       # What write queue length does an incoming req see
system.mem_ctrl.wrQLenPdf::4                        1                       # What write queue length does an incoming req see
system.mem_ctrl.wrQLenPdf::5                        1                       # What write queue length does an incoming req see
system.mem_ctrl.wrQLenPdf::6                        1                       # What write queue length does an incoming req see
system.mem_ctrl.wrQLenPdf::7                        1                       # What write queue length does an incoming req see
system.mem_ctrl.wrQLenPdf::8                        1                       # What write queue length does an incoming req see
system.mem_ctrl.wrQLenPdf::9                        1                       # What write queue length does an incoming req see
system.mem_ctrl.wrQLenPdf::10                       1                       # What write queue length does an incoming req see
system.mem_ctrl.wrQLenPdf::11                       1                       # What write queue length does an incoming req see
system.mem_ctrl.wrQLenPdf::12                       1                       # What write queue length does an incoming req see
system.mem_ctrl.wrQLenPdf::13                       1                       # What write queue length does an incoming req see
system.mem_ctrl.wrQLenPdf::14                       1                       # What write queue length does an incoming req see
system.mem_ctrl.wrQLenPdf::15                      19                       # What write queue length does an incoming req see
system.mem_ctrl.wrQLenPdf::16                      20                       # What write queue length does an incoming req see
system.mem_ctrl.wrQLenPdf::17                      45                       # What write queue length does an incoming req see
system.mem_ctrl.wrQLenPdf::18                      45                       # What write queue length does an incoming req see
system.mem_ctrl.wrQLenPdf::19                      45                       # What write queue length does an incoming req see
system.mem_ctrl.wrQLenPdf::20                      45                       # What write queue length does an incoming req see
system.mem_ctrl.wrQLenPdf::21                      45                       # What write queue length does an incoming req see
system.mem_ctrl.wrQLenPdf::22                      45                       # What write queue length does an incoming req see
system.mem_ctrl.wrQLenPdf::23                      45                       # What write queue length does an incoming req see
system.mem_ctrl.wrQLenPdf::24                      44                       # What write queue length does an incoming req see
system.mem_ctrl.wrQLenPdf::25                      44                       # What write queue length does an incoming req see
system.mem_ctrl.wrQLenPdf::26                      44                       # What write queue length does an incoming req see
system.mem_ctrl.wrQLenPdf::27                      44                       # What write queue length does an incoming req see
system.mem_ctrl.wrQLenPdf::28                      44                       # What write queue length does an incoming req see
system.mem_ctrl.wrQLenPdf::29                      44                       # What write queue length does an incoming req see
system.mem_ctrl.wrQLenPdf::30                      44                       # What write queue length does an incoming req see
system.mem_ctrl.wrQLenPdf::31                      44                       # What write queue length does an incoming req see
system.mem_ctrl.wrQLenPdf::32                      44                       # What write queue length does an incoming req see
system.mem_ctrl.wrQLenPdf::33                       0                       # What write queue length does an incoming req see
system.mem_ctrl.wrQLenPdf::34                       0                       # What write queue length does an incoming req see
system.mem_ctrl.wrQLenPdf::35                       0                       # What write queue length does an incoming req see
system.mem_ctrl.wrQLenPdf::36                       0                       # What write queue length does an incoming req see
system.mem_ctrl.wrQLenPdf::37                       0                       # What write queue length does an incoming req see
system.mem_ctrl.wrQLenPdf::38                       0                       # What write queue length does an incoming req see
system.mem_ctrl.wrQLenPdf::39                       0                       # What write queue length does an incoming req see
system.mem_ctrl.wrQLenPdf::40                       0                       # What write queue length does an incoming req see
system.mem_ctrl.wrQLenPdf::41                       0                       # What write queue length does an incoming req see
system.mem_ctrl.wrQLenPdf::42                       0                       # What write queue length does an incoming req see
system.mem_ctrl.wrQLenPdf::43                       0                       # What write queue length does an incoming req see
system.mem_ctrl.wrQLenPdf::44                       0                       # What write queue length does an incoming req see
system.mem_ctrl.wrQLenPdf::45                       0                       # What write queue length does an incoming req see
system.mem_ctrl.wrQLenPdf::46                       0                       # What write queue length does an incoming req see
system.mem_ctrl.wrQLenPdf::47                       0                       # What write queue length does an incoming req see
system.mem_ctrl.wrQLenPdf::48                       0                       # What write queue length does an incoming req see
system.mem_ctrl.wrQLenPdf::49                       0                       # What write queue length does an incoming req see
system.mem_ctrl.wrQLenPdf::50                       0                       # What write queue length does an incoming req see
system.mem_ctrl.wrQLenPdf::51                       0                       # What write queue length does an incoming req see
system.mem_ctrl.wrQLenPdf::52                       0                       # What write queue length does an incoming req see
system.mem_ctrl.wrQLenPdf::53                       0                       # What write queue length does an incoming req see
system.mem_ctrl.wrQLenPdf::54                       0                       # What write queue length does an incoming req see
system.mem_ctrl.wrQLenPdf::55                       0                       # What write queue length does an incoming req see
system.mem_ctrl.wrQLenPdf::56                       0                       # What write queue length does an incoming req see
system.mem_ctrl.wrQLenPdf::57                       0                       # What write queue length does an incoming req see
system.mem_ctrl.wrQLenPdf::58                       0                       # What write queue length does an incoming req see
system.mem_ctrl.wrQLenPdf::59                       0                       # What write queue length does an incoming req see
system.mem_ctrl.wrQLenPdf::60                       0                       # What write queue length does an incoming req see
system.mem_ctrl.wrQLenPdf::61                       0                       # What write queue length does an incoming req see
system.mem_ctrl.wrQLenPdf::62                       0                       # What write queue length does an incoming req see
system.mem_ctrl.wrQLenPdf::63                       0                       # What write queue length does an incoming req see
system.mem_ctrl.rdPerTurnAround::samples           44                       # Reads before turning the bus around for writes
system.mem_ctrl.rdPerTurnAround::mean      229.636364                       # Reads before turning the bus around for writes
system.mem_ctrl.rdPerTurnAround::gmean      55.511987                       # Reads before turning the bus around for writes
system.mem_ctrl.rdPerTurnAround::stdev    1001.046362                       # Reads before turning the bus around for writes
system.mem_ctrl.rdPerTurnAround::0-255             41     93.18%     93.18% # Reads before turning the bus around for writes
system.mem_ctrl.rdPerTurnAround::256-511            1      2.27%     95.45% # Reads before turning the bus around for writes
system.mem_ctrl.rdPerTurnAround::768-1023            1      2.27%     97.73% # Reads before turning the bus around for writes
system.mem_ctrl.rdPerTurnAround::6656-6911            1      2.27%    100.00% # Reads before turning the bus around for writes
system.mem_ctrl.rdPerTurnAround::total             44                       # Reads before turning the bus around for writes
system.mem_ctrl.wrPerTurnAround::samples           44                       # Writes before turning the bus around for reads
system.mem_ctrl.wrPerTurnAround::mean       16.840909                       # Writes before turning the bus around for reads
system.mem_ctrl.wrPerTurnAround::gmean      16.812969                       # Writes before turning the bus around for reads
system.mem_ctrl.wrPerTurnAround::stdev       0.986966                       # Writes before turning the bus around for reads
system.mem_ctrl.wrPerTurnAround::16                25     56.82%     56.82% # Writes before turning the bus around for reads
system.mem_ctrl.wrPerTurnAround::17                 1      2.27%     59.09% # Writes before turning the bus around for reads
system.mem_ctrl.wrPerTurnAround::18                18     40.91%    100.00% # Writes before turning the bus around for reads
system.mem_ctrl.wrPerTurnAround::total             44                       # Writes before turning the bus around for reads
system.mem_ctrl.bytesReadWrQ                     2560                       # Total number of bytes read from write queue
system.mem_ctrl.bytesReadSys                   650688                       # Total read bytes from the system interface side
system.mem_ctrl.bytesWrittenSys                 48960                       # Total written bytes from the system interface side
system.mem_ctrl.avgRdBWSys                       0.28                       # Average system read bandwidth in MiByte/s
system.mem_ctrl.avgWrBWSys                       0.02                       # Average system write bandwidth in MiByte/s
system.mem_ctrl.totGap                   2288222658000                       # Total gap between requests
system.mem_ctrl.avgGap                   209314183.86                       # Average gap between requests
system.mem_ctrl.requestorReadBytes::.cpu.inst       194240                       # Per-requestor bytes read from memory
system.mem_ctrl.requestorReadBytes::.cpu.data       453888                       # Per-requestor bytes read from memory
system.mem_ctrl.requestorWriteBytes::.writebacks        47424                       # Per-requestor bytes write to memory
[...]
system.mem_ctrl.requestorReadRate::.cpu.data 198358.316252864344                       # Per-requestor bytes read from memory rate (Bytes/sec)
system.mem_ctrl.requestorWriteRate::.writebacks 20725.255547570854                       # Per-requestor bytes write to memory rate (Bytes/sec)
system.mem_ctrl.requestorReadAccesses::.cpu.inst         3035                       # Per-requestor read serviced memory accesses
system.mem_ctrl.requestorReadAccesses::.cpu.data         7132                       # Per-requestor read serviced memory accesses
system.mem_ctrl.requestorWriteAccesses::.writebacks          765                       # Per-requestor write serviced memory accesses
system.mem_ctrl.requestorReadTotalLat::.cpu.inst     82208500                       # Per-requestor read total memory access latency
system.mem_ctrl.requestorReadTotalLat::.cpu.data    174652000                       # Per-requestor read total memory access latency
system.mem_ctrl.requestorWriteTotalLat::.writebacks 48286472720500                       # Per-requestor write total memory access latency
system.mem_ctrl.requestorReadAvgLat::.cpu.inst     27086.82                       # Per-requestor read average memory access latency
system.mem_ctrl.requestorReadAvgLat::.cpu.data     24488.50                       # Per-requestor read average memory access latency
system.mem_ctrl.requestorWriteAvgLat::.writebacks 63119572183.66                       # Per-requestor write average memory access latency
system.mem_ctrl.dram.bytes_read::.cpu.inst       194240                       # Number of bytes read from this memory
system.mem_ctrl.dram.bytes_read::.cpu.data       456448                       # Number of bytes read from this memory
system.mem_ctrl.dram.bytes_read::total         650688                       # Number of bytes read from this memory
system.mem_ctrl.dram.bytes_inst_read::.cpu.inst       194240                       # Number of instructions bytes read from this memory
system.mem_ctrl.dram.bytes_inst_read::total       194240                       # Number of instructions bytes read from this memory
system.mem_ctrl.dram.bytes_written::.writebacks        48960                       # Number of bytes written to this memory
system.mem_ctrl.dram.bytes_written::total        48960                       # Number of bytes written to this memory
system.mem_ctrl.dram.num_reads::.cpu.inst         3035                       # Number of read requests responded to by this memory
system.mem_ctrl.dram.num_reads::.cpu.data         7132                       # Number of read requests responded to by this memory
system.mem_ctrl.dram.num_reads::total           10167                       # Number of read requests responded to by this memory
system.mem_ctrl.dram.num_writes::.writebacks          765                       # Number of write requests responded to by this memory
system.mem_ctrl.dram.num_writes::total            765                       # Number of write requests responded to by this memory
system.mem_ctrl.dram.bw_read::.cpu.inst         84887                       # Total read bandwidth from this memory (bytes/s)
system.mem_ctrl.dram.bw_read::.cpu.data        199477                       # Total read bandwidth from this memory (bytes/s)
system.mem_ctrl.dram.bw_read::total            284364                       # Total read bandwidth from this memory (bytes/s)
system.mem_ctrl.dram.bw_inst_read::.cpu.inst        84887                       # Instruction read bandwidth from this memory (bytes/s)
system.mem_ctrl.dram.bw_inst_read::total        84887                       # Instruction read bandwidth from this memory (bytes/s)
system.mem_ctrl.dram.bw_write::.writebacks        21397                       # Write bandwidth from this memory (bytes/s)
system.mem_ctrl.dram.bw_write::total            21397                       # Write bandwidth from this memory (bytes/s)
system.mem_ctrl.dram.bw_total::.writebacks        21397                       # Total bandwidth to/from this memory (bytes/s)
system.mem_ctrl.dram.bw_total::.cpu.inst        84887                       # Total bandwidth to/from this memory (bytes/s)
system.mem_ctrl.dram.bw_total::.cpu.data       199477                       # Total bandwidth to/from this memory (bytes/s)
system.mem_ctrl.dram.bw_total::total           305760                       # Total bandwidth to/from this memory (bytes/s)
system.mem_ctrl.dram.readBursts                 10127                       # Number of DRAM read bursts
system.mem_ctrl.dram.writeBursts                  741                       # Number of DRAM write bursts
system.mem_ctrl.dram.perBankRdBursts::0           689                       # Per bank write bursts
system.mem_ctrl.dram.perBankRdBursts::1           722                       # Per bank write bursts
system.mem_ctrl.dram.perBankRdBursts::2           706                       # Per bank write bursts
system.mem_ctrl.dram.perBankRdBursts::3           863                       # Per bank write bursts
system.mem_ctrl.dram.perBankRdBursts::4           621                       # Per bank write bursts
system.mem_ctrl.dram.perBankRdBursts::5           493                       # Per bank write bursts
system.mem_ctrl.dram.perBankRdBursts::6           403                       # Per bank write bursts
system.mem_ctrl.dram.perBankRdBursts::7           597                       # Per bank write bursts
system.mem_ctrl.dram.perBankRdBursts::8           671                       # Per bank write bursts
system.mem_ctrl.dram.perBankRdBursts::9           614                       # Per bank write bursts
system.mem_ctrl.dram.perBankRdBursts::10          622                       # Per bank write bursts
system.mem_ctrl.dram.perBankRdBursts::11          775                       # Per bank write bursts
system.mem_ctrl.dram.perBankRdBursts::12          661                       # Per bank write bursts
system.mem_ctrl.dram.perBankRdBursts::13          572                       # Per bank write bursts
system.mem_ctrl.dram.perBankRdBursts::14          543                       # Per bank write bursts
system.mem_ctrl.dram.perBankRdBursts::15          575                       # Per bank write bursts
system.mem_ctrl.dram.perBankWrBursts::0            16                       # Per bank write bursts
system.mem_ctrl.dram.perBankWrBursts::1            21                       # Per bank write bursts
system.mem_ctrl.dram.perBankWrBursts::2            18                       # Per bank write bursts
system.mem_ctrl.dram.perBankWrBursts::3            53                       # Per bank write bursts
system.mem_ctrl.dram.perBankWrBursts::4            49                       # Per bank write bursts
system.mem_ctrl.dram.perBankWrBursts::5            18                       # Per bank write bursts
system.mem_ctrl.dram.perBankWrBursts::6             3                       # Per bank write bursts
system.mem_ctrl.dram.perBankWrBursts::7             8                       # Per bank write bursts
system.mem_ctrl.dram.perBankWrBursts::8            17                       # Per bank write bursts
system.mem_ctrl.dram.perBankWrBursts::9            89                       # Per bank write bursts
system.mem_ctrl.dram.perBankWrBursts::10          119                       # Per bank write bursts
system.mem_ctrl.dram.perBankWrBursts::11          200                       # Per bank write bursts
system.mem_ctrl.dram.perBankWrBursts::12           99                       # Per bank write bursts
system.mem_ctrl.dram.perBankWrBursts::13           19                       # Per bank write bursts
system.mem_ctrl.dram.perBankWrBursts::14            0                       # Per bank write bursts
system.mem_ctrl.dram.perBankWrBursts::15           12                       # Per bank write bursts
system.mem_ctrl.dram.totQLat                 66979250                       # Total ticks spent queuing
system.mem_ctrl.dram.totBusLat               50635000                       # Total ticks spent in databus transfers
system.mem_ctrl.dram.totMemAccLat           256860500                       # Total ticks spent from burst creation until serviced by the DRAM
system.mem_ctrl.dram.avgQLat                  6613.93                       # Average queueing delay per DRAM burst
system.mem_ctrl.dram.avgBusLat                5000.00                       # Average bus latency per DRAM burst
system.mem_ctrl.dram.avgMemAccLat            25363.93                       # Average memory access latency per DRAM burst
system.mem_ctrl.dram.readRowHits                 8443                       # Number of row buffer hits during reads
system.mem_ctrl.dram.writeRowHits                 548                       # Number of row buffer hits during writes
system.mem_ctrl.dram.readRowHitRate             83.37                       # Row buffer hit rate for reads
system.mem_ctrl.dram.writeRowHitRate            73.95                       # Row buffer hit rate for writes
system.mem_ctrl.dram.bytesPerActivate::samples         1868                       # Bytes accessed per row activation
system.mem_ctrl.dram.bytesPerActivate::mean   371.494647                       # Bytes accessed per row activation
system.mem_ctrl.dram.bytesPerActivate::gmean   234.061902                       # Bytes accessed per row activation
system.mem_ctrl.dram.bytesPerActivate::stdev   338.842950                       # Bytes accessed per row activation
system.mem_ctrl.dram.bytesPerActivate::0-127          510     27.30%     27.30% # Bytes accessed per row activation
system.mem_ctrl.dram.bytesPerActivate::128-255          356     19.06%     46.36% # Bytes accessed per row activation
system.mem_ctrl.dram.bytesPerActivate::256-383          353     18.90%     65.26% # Bytes accessed per row activation
system.mem_ctrl.dram.bytesPerActivate::384-511          147      7.87%     73.13% # Bytes accessed per row activation
system.mem_ctrl.dram.bytesPerActivate::512-639           67      3.59%     76.71% # Bytes accessed per row activation
system.mem_ctrl.dram.bytesPerActivate::640-767           80      4.28%     81.00% # Bytes accessed per row activation
system.mem_ctrl.dram.bytesPerActivate::768-895           41      2.19%     83.19% # Bytes accessed per row activation
system.mem_ctrl.dram.bytesPerActivate::896-1023           30      1.61%     84.80% # Bytes accessed per row activation
system.mem_ctrl.dram.bytesPerActivate::1024-1151          284     15.20%    100.00% # Bytes accessed per row activation
system.mem_ctrl.dram.bytesPerActivate::total         1868                       # Bytes accessed per row activation
system.mem_ctrl.dram.bytesRead                 648128                       # Total number of bytes read from DRAM
system.mem_ctrl.dram.bytesWritten               47424                       # Total number of bytes written to DRAM
system.mem_ctrl.dram.avgRdBW                 0.283245                       # Average DRAM read bandwidth in MiBytes/s
system.mem_ctrl.dram.avgWrBW                 0.020725                       # Average DRAM write bandwidth in MiBytes/s
system.mem_ctrl.dram.peakBW                  12800.00                       # Theoretical peak bandwidth in MiByte/s
system.mem_ctrl.dram.busUtil                     0.00                       # Data bus utilization in percentage
system.mem_ctrl.dram.busUtilRead                 0.00                       # Data bus utilization in percentage for reads
system.mem_ctrl.dram.busUtilWrite                0.00                       # Data bus utilization in percentage for writes
system.mem_ctrl.dram.pageHitRate                82.73                       # Row buffer hit rate, read and write combined
system.mem_ctrl.dram.power_state.pwrStateResidencyTicks::UNDEFINED 2288222690000                       # Cumulative time (in ticks) in various power states
system.mem_ctrl.dram.rank0.actEnergy          6304620                       # Energy for activate commands per rank (pJ)
system.mem_ctrl.dram.rank0.preEnergy          3332010                       # Energy for precharge commands per rank (pJ)
system.mem_ctrl.dram.rank0.readEnergy        36371160                       # Energy for read commands per rank (pJ)
system.mem_ctrl.dram.rank0.writeEnergy         970920                       # Energy for write commands per rank (pJ)
system.mem_ctrl.dram.rank0.refreshEnergy 180629788560.000031                       # Energy for refresh commands per rank (pJ)
system.mem_ctrl.dram.rank0.actBackEnergy  33788609340                       # Energy for active background per rank (pJ)
system.mem_ctrl.dram.rank0.preBackEnergy 850223947200                       # Energy for precharge background per rank (pJ)
system.mem_ctrl.dram.rank0.actPowerDownEnergy            0                       # Energy for active power-down per rank (pJ)
system.mem_ctrl.dram.rank0.prePowerDownEnergy            0                       # Energy for precharge power-down per rank (pJ)
system.mem_ctrl.dram.rank0.selfRefreshEnergy            0                       # Energy for self refresh per rank (pJ)
system.mem_ctrl.dram.rank0.totalEnergy   1064689323810                       # Total energy per rank (pJ)
system.mem_ctrl.dram.rank0.averagePower    465.290956                       # Core power per rank (mW)
system.mem_ctrl.dram.rank0.totalIdleTime            0                       # Total Idle time Per DRAM Rank
system.mem_ctrl.dram.rank0.pwrStateTime::IDLE 2210078093750                       # Time in different power states
system.mem_ctrl.dram.rank0.pwrStateTime::REF  76408540000                       # Time in different power states
system.mem_ctrl.dram.rank0.pwrStateTime::SREF            0                       # Time in different power states
system.mem_ctrl.dram.rank0.pwrStateTime::PRE_PDN            0                       # Time in different power states
system.mem_ctrl.dram.rank0.pwrStateTime::ACT   1736056250                       # Time in different power states
system.mem_ctrl.dram.rank0.pwrStateTime::ACT_PDN            0                       # Time in different power states
system.mem_ctrl.dram.rank1.actEnergy          7097160                       # Energy for activate commands per rank (pJ)
system.mem_ctrl.dram.rank1.preEnergy          3757050                       # Energy for precharge commands per rank (pJ)
system.mem_ctrl.dram.rank1.readEnergy        35935620                       # Energy for read commands per rank (pJ)
system.mem_ctrl.dram.rank1.writeEnergy        2897100                       # Energy for write commands per rank (pJ)
system.mem_ctrl.dram.rank1.refreshEnergy 180629788560.000031                       # Energy for refresh commands per rank (pJ)
system.mem_ctrl.dram.rank1.actBackEnergy  33745450650                       # Energy for active background per rank (pJ)
system.mem_ctrl.dram.rank1.preBackEnergy 850260291360                       # Energy for precharge background per rank (pJ)
system.mem_ctrl.dram.rank1.actPowerDownEnergy            0                       # Energy for active power-down per rank (pJ)
system.mem_ctrl.dram.rank1.prePowerDownEnergy            0                       # Energy for precharge power-down per rank (pJ)
system.mem_ctrl.dram.rank1.selfRefreshEnergy            0                       # Energy for self refresh per rank (pJ)
system.mem_ctrl.dram.rank1.totalEnergy   1064685217500                       # Total energy per rank (pJ)
system.mem_ctrl.dram.rank1.averagePower    465.289162                       # Core power per rank (mW)
system.mem_ctrl.dram.rank1.totalIdleTime            0                       # Total Idle time Per DRAM Rank
system.mem_ctrl.dram.rank1.pwrStateTime::IDLE 2210173301250                       # Time in different power states
system.mem_ctrl.dram.rank1.pwrStateTime::REF  76408540000                       # Time in different power states
system.mem_ctrl.dram.rank1.pwrStateTime::SREF            0                       # Time in different power states
system.mem_ctrl.dram.rank1.pwrStateTime::PRE_PDN            0                       # Time in different power states
system.mem_ctrl.dram.rank1.pwrStateTime::ACT   1640848750                       # Time in different power states
system.mem_ctrl.dram.rank1.pwrStateTime::ACT_PDN            0                       # Time in different power states
system.mem_ctrl.power_state.pwrStateResidencyTicks::UNDEFINED 2288222690000                       # Cumulative time (in ticks) in various power states
system.membus.trans_dist::ReadResp               3487                       # Transaction distribution
system.membus.trans_dist::WritebackDirty          765                       # Transaction distribution
system.membus.trans_dist::CleanEvict             1432                       # Transaction distribution
system.membus.trans_dist::ReadExReq              6680                       # Transaction distribution
system.membus.trans_dist::ReadExResp             6680                       # Transaction distribution
system.membus.trans_dist::ReadSharedReq          3487                       # Transaction distribution
system.membus.pkt_count_system.l2cache.mem_side_port::system.mem_ctrl.port        22531                       # Packet count per connected requestor and responder (bytes)
system.membus.pkt_count_system.l2cache.mem_side_port::total        22531                       # Packet count per connected requestor and responder (bytes)
system.membus.pkt_count::total                  22531                       # Packet count per connected requestor and responder (bytes)
system.membus.pkt_size_system.l2cache.mem_side_port::system.mem_ctrl.port       699648                       # Cumulative packet size per connected requestor and responder (bytes)
system.membus.pkt_size_system.l2cache.mem_side_port::total       699648                       # Cumulative packet size per connected requestor and responder (bytes)
system.membus.pkt_size::total                  699648                       # Cumulative packet size per connected requestor and responder (bytes)
system.membus.snoops                                0                       # Total snoops (count)
system.membus.snoopTraffic                          0                       # Total snoop traffic (bytes)
system.membus.snoop_fanout::samples             10167                       # Request fanout histogram
system.membus.snoop_fanout::mean                    0                       # Request fanout histogram
system.membus.snoop_fanout::stdev                   0                       # Request fanout histogram
system.membus.snoop_fanout::underflows              0      0.00%      0.00% # Request fanout histogram
system.membus.snoop_fanout::0                   10167    100.00%    100.00% # Request fanout histogram
system.membus.snoop_fanout::1                       0      0.00%    100.00% # Request fanout histogram
system.membus.snoop_fanout::overflows               0      0.00%    100.00% # Request fanout histogram
system.membus.snoop_fanout::min_value               0                       # Request fanout histogram
system.membus.snoop_fanout::max_value               0                       # Request fanout histogram
system.membus.snoop_fanout::total               10167                       # Request fanout histogram
system.membus.power_state.pwrStateResidencyTicks::UNDEFINED 2288222690000                       # Cumulative time (in ticks) in various power states
system.membus.reqLayer2.occupancy            15424000                       # Layer occupancy (ticks)
system.membus.reqLayer2.utilization               0.0                       # Layer utilization (%)
system.membus.respLayer0.occupancy           53817500                       # Layer occupancy (ticks)
system.membus.respLayer0.utilization              0.0                       # Layer utilization (%)

---------- End Simulation Statistics   ----------
