
---------- Begin Simulation Statistics ----------
final_tick                               129725719000                       # Number of ticks from beginning of simulation (restored from checkpoints and never reset)
host_inst_rate                                 489912                       # Simulator instruction rate (inst/s)
host_mem_usage                                 647332                       # Number of bytes of host memory used
host_op_rate                                   846396                       # Simulator op (including micro ops) rate (op/s)
host_seconds                                    63.61                       # Real time elapsed on the host
host_tick_rate                             2039402220                       # Simulator tick rate (ticks/s)
sim_freq                                 1000000000000                       # Frequency of simulated ticks
sim_insts                                    31163025                       # Number of instructions simulated
sim_ops                                      53838930                       # Number of ops (including micro ops) simulated
sim_seconds                                  0.129726                       # Number of seconds simulated
sim_ticks                                129725719000                       # Number of ticks simulated
system.cpu.Branches                           3147837                       # Number of branches fetched
system.cpu.committedInsts                    31163025                       # Number of instructions committed
system.cpu.committedOps                      53838930                       # Number of ops (including micro ops) committed
system.cpu.idle_fraction                     0.000000                       # Percentage of idle cycles
system.cpu.not_idle_fraction                 1.000000                       # Percentage of non-idle cycles
system.cpu.numCycles                        129725719                       # number of cpu cycles simulated
system.cpu.numWorkItemsCompleted                    0                       # number of work items this cpu completed
system.cpu.numWorkItemsStarted                      0                       # number of work items this cpu started
system.cpu.num_busy_cycles               129725718.999000                       # Number of busy cycles
system.cpu.num_cc_register_reads             14821762                       # number of times the CC registers were read
system.cpu.num_cc_register_writes            15871069                       # number of times the CC registers were written
system.cpu.num_conditional_control_insts      2621487                       # number of instructions that are conditional controls
system.cpu.num_fp_alu_accesses               17960391                       # Number of float alu accesses
system.cpu.num_fp_insts                      17960391                       # number of float instructions
system.cpu.num_fp_register_reads             32379963                       # number of times the floating registers were read
system.cpu.num_fp_register_writes            16583137                       # number of times the floating registers were written
system.cpu.num_func_calls                      525556                       # number of times a function call or return occured
system.cpu.num_idle_cycles                   0.001000                       # Number of idle cycles
system.cpu.num_int_alu_accesses              39665968                       # Number of integer alu accesses
system.cpu.num_int_insts                     39665968                       # number of integer instructions
system.cpu.num_int_register_reads            74188878                       # number of times the integer registers were read
system.cpu.num_int_register_writes           30192703                       # number of times the integer registers were written
system.cpu.num_load_insts                     6721538                       # Number of load instructions
system.cpu.num_mem_refs                      10374024                       # number of memory refs
system.cpu.num_store_insts                    3652486                       # Number of store instructions
system.cpu.num_vec_alu_accesses                     0                       # Number of vector alu accesses
system.cpu.num_vec_insts                            0                       # number of vector instructions
system.cpu.num_vec_register_reads                   0                       # number of times the vector registers were read
system.cpu.num_vec_register_writes                  0                       # number of times the vector registers were written
system.cpu.op_class::No_OpClass                277415      0.52%      0.52% # Class of executed instruction
system.cpu.op_class::IntAlu                  29881471     55.50%     56.02% # Class of executed instruction
system.cpu.op_class::IntMult                       28      0.00%     56.02% # Class of executed instruction
system.cpu.op_class::IntDiv                       182      0.00%     56.02% # Class of executed instruction
system.cpu.op_class::FloatAdd                 1573060      2.92%     58.94% # Class of executed instruction
system.cpu.op_class::FloatCmp                       0      0.00%     58.94% # Class of executed instruction
system.cpu.op_class::FloatCvt                       0      0.00%     58.94% # Class of executed instruction
system.cpu.op_class::FloatMult                      0      0.00%     58.94% # Class of executed instruction
system.cpu.op_class::FloatMultAcc                   0      0.00%     58.94% # Class of executed instruction
system.cpu.op_class::FloatDiv                       0      0.00%     58.94% # Class of executed instruction
system.cpu.op_class::FloatMisc                      0      0.00%     58.94% # Class of executed instruction
system.cpu.op_class::FloatSqrt                      0      0.00%     58.94% # Class of executed instruction
system.cpu.op_class::SimdAdd                    32770      0.06%     59.00% # Class of executed instruction
system.cpu.op_class::SimdAddAcc                     0      0.00%     59.00% # Class of executed instruction
system.cpu.op_class::SimdAlu                  2097654      3.90%     62.90% # Class of executed instruction
system.cpu.op_class::SimdCmp                        6      0.00%     62.90% # Class of executed instruction
system.cpu.op_class::SimdCvt                    33224      0.06%     62.96% # Class of executed instruction
system.cpu.op_class::SimdMisc                 2163418      4.02%     66.98% # Class of executed instruction
system.cpu.op_class::SimdMult                       0      0.00%     66.98% # Class of executed instruction
system.cpu.op_class::SimdMultAcc                    0      0.00%     66.98% # Class of executed instruction
system.cpu.op_class::SimdShift                      6      0.00%     66.98% # Class of executed instruction
system.cpu.op_class::SimdShiftAcc                   0      0.00%     66.98% # Class of executed instruction
system.cpu.op_class::SimdDiv                        0      0.00%     66.98% # Class of executed instruction
system.cpu.op_class::SimdSqrt                       0      0.00%     66.98% # Class of executed instruction
system.cpu.op_class::SimdFloatAdd             1769545      3.29%     70.26% # Class of executed instruction
system.cpu.op_class::SimdFloatAlu                   0      0.00%     70.26% # Class of executed instruction
system.cpu.op_class::SimdFloatCmp                   0      0.00%     70.26% # Class of executed instruction
system.cpu.op_class::SimdFloatCvt             2162696      4.02%     74.28% # Class of executed instruction
system.cpu.op_class::SimdFloatDiv                   2      0.00%     74.28% # Class of executed instruction
system.cpu.op_class::SimdFloatMisc                  0      0.00%     74.28% # Class of executed instruction
system.cpu.op_class::SimdFloatMult            3473479      6.45%     80.73% # Class of executed instruction
system.cpu.op_class::SimdFloatMultAcc               0      0.00%     80.73% # Class of executed instruction
system.cpu.op_class::SimdFloatSqrt                  0      0.00%     80.73% # Class of executed instruction
system.cpu.op_class::SimdReduceAdd                  0      0.00%     80.73% # Class of executed instruction
system.cpu.op_class::SimdReduceAlu                  0      0.00%     80.73% # Class of executed instruction
system.cpu.op_class::SimdReduceCmp                  0      0.00%     80.73% # Class of executed instruction
system.cpu.op_class::SimdFloatReduceAdd             0      0.00%     80.73% # Class of executed instruction
system.cpu.op_class::SimdFloatReduceCmp             0      0.00%     80.73% # Class of executed instruction
system.cpu.op_class::SimdAes                        0      0.00%     80.73% # Class of executed instruction
system.cpu.op_class::SimdAesMix                     0      0.00%     80.73% # Class of executed instruction
system.cpu.op_class::SimdSha1Hash                   0      0.00%     80.73% # Class of executed instruction
system.cpu.op_class::SimdSha1Hash2                  0      0.00%     80.73% # Class of executed instruction
system.cpu.op_class::SimdSha256Hash                 0      0.00%     80.73% # Class of executed instruction
system.cpu.op_class::SimdSha256Hash2                0      0.00%     80.73% # Class of executed instruction
system.cpu.op_class::SimdShaSigma2                  0      0.00%     80.73% # Class of executed instruction
system.cpu.op_class::SimdShaSigma3                  0      0.00%     80.73% # Class of executed instruction
system.cpu.op_class::SimdPredAlu                    0      0.00%     80.73% # Class of executed instruction
system.cpu.op_class::MemRead                  5082678      9.44%     90.17% # Class of executed instruction
system.cpu.op_class::MemWrite                 3389653      6.30%     96.47% # Class of executed instruction
system.cpu.op_class::FloatMemRead             1638860      3.04%     99.51% # Class of executed instruction
system.cpu.op_class::FloatMemWrite             262833      0.49%    100.00% # Class of executed instruction
system.cpu.op_class::IprAccess                      0      0.00%    100.00% # Class of executed instruction
system.cpu.op_class::InstPrefetch                   0      0.00%    100.00% # Class of executed instruction
system.cpu.op_class::total                   53838980                       # Class of executed instruction
system.cpu.workload.numSyscalls                    46                       # Number of system calls
system.l2bus.snoop_filter.hit_multi_requests            0                       # Number of requests hitting in the snoop filter with multiple (>1) holders of the requested data.
system.l2bus.snoop_filter.hit_multi_snoops            0                       # Number of snoops hitting in the snoop filter with multiple (>1) holders of the requested data.
system.l2bus.snoop_filter.hit_single_requests       249850                       # Number of requests hitting in the snoop filter with a single holder of the requested data.
system.l2bus.snoop_filter.hit_single_snoops        62572                       # Number of snoops hitting in the snoop filter with a single holder of the requested data.
system.l2bus.snoop_filter.tot_requests         500979                       # Total number of requests made to the snoop filter.
system.l2bus.snoop_filter.tot_snoops            62572                       # Total number of snoops made to the snoop filter.
system.membus.snoop_filter.hit_multi_requests            0                       # Number of requests hitting in the snoop filter with multiple (>1) holders of the requested data.
system.membus.snoop_filter.hit_multi_snoops            0                       # Number of snoops hitting in the snoop filter with multiple (>1) holders of the requested data.
system.membus.snoop_filter.hit_single_requests       198738                       # Number of requests hitting in the snoop filter with a single holder of the requested data.
system.membus.snoop_filter.hit_single_snoops            0                       # Number of snoops hitting in the snoop filter with a single holder of the requested data.
system.membus.snoop_filter.tot_requests        399696                       # Total number of requests made to the snoop filter.
system.membus.snoop_filter.tot_snoops               0                       # Total number of snoops made to the snoop filter.
system.clk_domain.clock                          1000                       # Clock period in ticks
system.clk_domain.voltage_domain.voltage            1                       # Voltage in Volts
system.cpu.dcache.demand_hits::.cpu.data     10128032                       # number of demand (read+write) hits
system.cpu.dcache.demand_hits::total         10128032                       # number of demand (read+write) hits
system.cpu.dcache.overall_hits::.cpu.data     10128032                       # number of overall hits
system.cpu.dcache.overall_hits::total        10128032                       # number of overall hits
system.cpu.dcache.demand_misses::.cpu.data       250135                       # number of demand (read+write) misses
system.cpu.dcache.demand_misses::total         250135                       # number of demand (read+write) misses
system.cpu.dcache.overall_misses::.cpu.data       250135                       # number of overall misses
system.cpu.dcache.overall_misses::total        250135                       # number of overall misses
system.cpu.dcache.demand_miss_latency::.cpu.data  22669685000                       # number of demand (read+write) miss cycles
system.cpu.dcache.demand_miss_latency::total  22669685000                       # number of demand (read+write) miss cycles
system.cpu.dcache.overall_miss_latency::.cpu.data  22669685000                       # number of overall miss cycles
system.cpu.dcache.overall_miss_latency::total  22669685000                       # number of overall miss cycles
system.cpu.dcache.demand_accesses::.cpu.data     10378167                       # number of demand (read+write) accesses
system.cpu.dcache.demand_accesses::total     10378167                       # number of demand (read+write) accesses
system.cpu.dcache.overall_accesses::.cpu.data     10378167                       # number of overall (read+write) accesses
system.cpu.dcache.overall_accesses::total     10378167                       # number of overall (read+write) accesses
system.cpu.dcache.demand_miss_rate::.cpu.data     0.024102                       # miss rate for demand accesses
system.cpu.dcache.demand_miss_rate::total     0.024102                       # miss rate for demand accesses
system.cpu.dcache.overall_miss_rate::.cpu.data     0.024102                       # miss rate for overall accesses
system.cpu.dcache.overall_miss_rate::total     0.024102                       # miss rate for overall accesses
system.cpu.dcache.demand_avg_miss_latency::.cpu.data 90629.799908                       # average overall miss latency
system.cpu.dcache.demand_avg_miss_latency::total 90629.799908                       # average overall miss latency
system.cpu.dcache.overall_avg_miss_latency::.cpu.data 90629.799908                       # average overall miss latency
system.cpu.dcache.overall_avg_miss_latency::total 90629.799908                       # average overall miss latency
system.cpu.dcache.blocked_cycles::no_mshrs            0                       # number of cycles access was blocked
system.cpu.dcache.blocked_cycles::no_targets            0                       # number of cycles access was blocked
system.cpu.dcache.blocked::no_mshrs                 0                       # number of cycles access was blocked
system.cpu.dcache.blocked::no_targets               0                       # number of cycles access was blocked
system.cpu.dcache.avg_blocked_cycles::no_mshrs          nan                       # average number of cycles each access was blocked
system.cpu.dcache.avg_blocked_cycles::no_targets          nan                       # average number of cycles each access was blocked
system.cpu.dcache.writebacks::.writebacks       111130                       # number of writebacks
system.cpu.dcache.writebacks::total            111130                       # number of writebacks
system.cpu.dcache.demand_mshr_misses::.cpu.data       250135                       # number of demand (read+write) MSHR misses
system.cpu.dcache.demand_mshr_misses::total       250135                       # number of demand (read+write) MSHR misses
system.cpu.dcache.overall_mshr_misses::.cpu.data       250135                       # number of overall MSHR misses
system.cpu.dcache.overall_mshr_misses::total       250135                       # number of overall MSHR misses
system.cpu.dcache.demand_mshr_miss_latency::.cpu.data  22169415000                       # number of demand (read+write) MSHR miss cycles
system.cpu.dcache.demand_mshr_miss_latency::total  22169415000                       # number of demand (read+write) MSHR miss cycles
system.cpu.dcache.overall_mshr_miss_latency::.cpu.data  22169415000                       # number of overall MSHR miss cycles
system.cpu.dcache.overall_mshr_miss_latency::total  22169415000                       # number of overall MSHR miss cycles
system.cpu.dcache.demand_mshr_miss_rate::.cpu.data     0.024102                       # mshr miss rate for demand accesses
system.cpu.dcache.demand_mshr_miss_rate::total     0.024102                       # mshr miss rate for demand accesses
system.cpu.dcache.overall_mshr_miss_rate::.cpu.data     0.024102                       # mshr miss rate for overall accesses
system.cpu.dcache.overall_mshr_miss_rate::total     0.024102                       # mshr miss rate for overall accesses
system.cpu.dcache.demand_avg_mshr_miss_latency::.cpu.data 88629.799908                       # average overall mshr miss latency
system.cpu.dcache.demand_avg_mshr_miss_latency::total 88629.799908                       # average overall mshr miss latency
system.cpu.dcache.overall_avg_mshr_miss_latency::.cpu.data 88629.799908                       # average overall mshr miss latency
system.cpu.dcache.overall_avg_mshr_miss_latency::total 88629.799908                       # average overall mshr miss latency
system.cpu.dcache.replacements                 249111                       # number of replacements
system.cpu.dcache.ReadReq_hits::.cpu.data      6579484                       # number of ReadReq hits
system.cpu.dcache.ReadReq_hits::total         6579484                       # number of ReadReq hits
system.cpu.dcache.ReadReq_misses::.cpu.data       146176                       # number of ReadReq misses
system.cpu.dcache.ReadReq_misses::total        146176                       # number of ReadReq misses
system.cpu.dcache.ReadReq_miss_latency::.cpu.data  14728611000                       # number of ReadReq miss cycles
system.cpu.dcache.ReadReq_miss_latency::total  14728611000                       # number of ReadReq miss cycles
system.cpu.dcache.ReadReq_accesses::.cpu.data      6725660                       # number of ReadReq accesses(hits+misses)
system.cpu.dcache.ReadReq_accesses::total      6725660                       # number of ReadReq accesses(hits+misses)
system.cpu.dcache.ReadReq_miss_rate::.cpu.data     0.021734                       # miss rate for ReadReq accesses
system.cpu.dcache.ReadReq_miss_rate::total     0.021734                       # miss rate for ReadReq accesses
system.cpu.dcache.ReadReq_avg_miss_latency::.cpu.data 100759.433833                       # average ReadReq miss latency
system.cpu.dcache.ReadReq_avg_miss_latency::total 100759.433833                       # average ReadReq miss latency
system.cpu.dcache.ReadReq_mshr_misses::.cpu.data       146176                       # number of ReadReq MSHR misses
system.cpu.dcache.ReadReq_mshr_misses::total       146176                       # number of ReadReq MSHR misses
system.cpu.dcache.ReadReq_mshr_miss_latency::.cpu.data  14436259000                       # number of ReadReq MSHR miss cycles
system.cpu.dcache.ReadReq_mshr_miss_latency::total  14436259000                       # number of ReadReq MSHR miss cycles
system.cpu.dcache.ReadReq_mshr_miss_rate::.cpu.data     0.021734                       # mshr miss rate for ReadReq accesses
system.cpu.dcache.ReadReq_mshr_miss_rate::total     0.021734                       # mshr miss rate for ReadReq accesses
system.cpu.dcache.ReadReq_avg_mshr_miss_latency::.cpu.data 98759.433833                       # average ReadReq mshr miss latency
system.cpu.dcache.ReadReq_avg_mshr_miss_latency::total 98759.433833                       # average ReadReq mshr miss latency
system.cpu.dcache.WriteReq_hits::.cpu.data      3548548                       # number of WriteReq hits
system.cpu.dcache.WriteReq_hits::total        3548548                       # number of WriteReq hits
system.cpu.dcache.WriteReq_misses::.cpu.data       103959                       # number of WriteReq misses
system.cpu.dcache.WriteReq_misses::total       103959                       # number of WriteReq misses
system.cpu.dcache.WriteReq_miss_latency::.cpu.data   7941074000                       # number of WriteReq miss cycles
system.cpu.dcache.WriteReq_miss_latency::total   7941074000                       # number of WriteReq miss cycles
system.cpu.dcache.WriteReq_accesses::.cpu.data      3652507                       # number of WriteReq accesses(hits+misses)
system.cpu.dcache.WriteReq_accesses::total      3652507                       # number of WriteReq accesses(hits+misses)
system.cpu.dcache.WriteReq_miss_rate::.cpu.data     0.028462                       # miss rate for WriteReq accesses
system.cpu.dcache.WriteReq_miss_rate::total     0.028462                       # miss rate for WriteReq accesses
system.cpu.dcache.WriteReq_avg_miss_latency::.cpu.data 76386.594715                       # average WriteReq miss latency
system.cpu.dcache.WriteReq_avg_miss_latency::total 76386.594715                       # average WriteReq miss latency
system.cpu.dcache.WriteReq_mshr_misses::.cpu.data       103959                       # number of WriteReq MSHR misses
system.cpu.dcache.WriteReq_mshr_misses::total       103959                       # number of WriteReq MSHR misses
system.cpu.dcache.WriteReq_mshr_miss_latency::.cpu.data   7733156000                       # number of WriteReq MSHR miss cycles
system.cpu.dcache.WriteReq_mshr_miss_latency::total   7733156000                       # number of WriteReq MSHR miss cycles
system.cpu.dcache.WriteReq_mshr_miss_rate::.cpu.data     0.028462                       # mshr miss rate for WriteReq accesses
system.cpu.dcache.WriteReq_mshr_miss_rate::total     0.028462                       # mshr miss rate for WriteReq accesses
system.cpu.dcache.WriteReq_avg_mshr_miss_latency::.cpu.data 74386.594715                       # average WriteReq mshr miss latency
system.cpu.dcache.WriteReq_avg_mshr_miss_latency::total 74386.594715                       # average WriteReq mshr miss latency
system.cpu.dcache.power_state.pwrStateResidencyTicks::UNDEFINED 129725719000                       # Cumulative time (in ticks) in various power states
system.cpu.dcache.tags.tagsinuse           994.609359                       # Cycle average of tags in use
system.cpu.dcache.tags.total_refs            10378167                       # Total number of references to valid blocks.
system.cpu.dcache.tags.sampled_refs            250135                       # Sample count of references to valid blocks.
system.cpu.dcache.tags.avg_refs             41.490263                       # Average number of references to valid blocks.
system.cpu.dcache.tags.warmup_cycle            224000                       # Cycle when the warmup percentage was hit.
system.cpu.dcache.tags.occ_blocks::.cpu.data   994.609359                       # Average occupied blocks per requestor
system.cpu.dcache.tags.occ_percent::.cpu.data     0.971298                       # Average percentage of cache occupancy
system.cpu.dcache.tags.occ_percent::total     0.971298                       # Average percentage of cache occupancy
system.cpu.dcache.tags.occ_task_id_blocks::1024         1024                       # Occupied blocks per task id
system.cpu.dcache.tags.age_task_id_blocks_1024::0           20                       # Occupied blocks per task id
system.cpu.dcache.tags.age_task_id_blocks_1024::1           44                       # Occupied blocks per task id
system.cpu.dcache.tags.age_task_id_blocks_1024::2          960                       # Occupied blocks per task id
system.cpu.dcache.tags.occ_task_id_percent::1024            1                       # Percentage of cache occupancy per task id
system.cpu.dcache.tags.tag_accesses          21006469                       # Number of tag accesses
system.cpu.dcache.tags.data_accesses         21006469                       # Number of data accesses
system.cpu.dcache.tags.power_state.pwrStateResidencyTicks::UNDEFINED 129725719000                       # Cumulative time (in ticks) in various power states
system.cpu.dtb.rdAccesses                     6725661                       # TLB accesses on read requests
system.cpu.dtb.wrAccesses                     3652510                       # TLB accesses on write requests
system.cpu.dtb.rdMisses                          1853                       # TLB misses on read requests
system.cpu.dtb.wrMisses                         35717                       # TLB misses on write requests
system.cpu.dtb.walker.power_state.pwrStateResidencyTicks::UNDEFINED 129725719000                       # Cumulative time (in ticks) in various power states
system.cpu.icache.demand_hits::.cpu.inst     43359474                       # number of demand (read+write) hits
system.cpu.icache.demand_hits::total         43359474                       # number of demand (read+write) hits
system.cpu.icache.overall_hits::.cpu.inst     43359474                       # number of overall hits
system.cpu.icache.overall_hits::total        43359474                       # number of overall hits
system.cpu.icache.demand_misses::.cpu.inst          994                       # number of demand (read+write) misses
system.cpu.icache.demand_misses::total            994                       # number of demand (read+write) misses
system.cpu.icache.overall_misses::.cpu.inst          994                       # number of overall misses
system.cpu.icache.overall_misses::total           994                       # number of overall misses
system.cpu.icache.demand_miss_latency::.cpu.inst     89378000                       # number of demand (read+write) miss cycles
system.cpu.icache.demand_miss_latency::total     89378000                       # number of demand (read+write) miss cycles
system.cpu.icache.overall_miss_latency::.cpu.inst     89378000                       # number of overall miss cycles
system.cpu.icache.overall_miss_latency::total     89378000                       # number of overall miss cycles
system.cpu.icache.demand_accesses::.cpu.inst     43360468                       # number of demand (read+write) accesses
system.cpu.icache.demand_accesses::total     43360468                       # number of demand (read+write) accesses
system.cpu.icache.overall_accesses::.cpu.inst     43360468                       # number of overall (read+write) accesses
system.cpu.icache.overall_accesses::total     43360468                       # number of overall (read+write) accesses
system.cpu.icache.demand_miss_rate::.cpu.inst     0.000023                       # miss rate for demand accesses
system.cpu.icache.demand_miss_rate::total     0.000023                       # miss rate for demand accesses
system.cpu.icache.overall_miss_rate::.cpu.inst     0.000023                       # miss rate for overall accesses
system.cpu.icache.overall_miss_rate::total     0.000023                       # miss rate for overall accesses
system.cpu.icache.demand_avg_miss_latency::.cpu.inst 89917.505030                       # average overall miss latency
system.cpu.icache.demand_avg_miss_latency::total 89917.505030                       # average overall miss latency
system.cpu.icache.overall_avg_miss_latency::.cpu.inst 89917.505030                       # average overall miss latency
system.cpu.icache.overall_avg_miss_latency::total 89917.505030                       # average overall miss latency
system.cpu.icache.blocked_cycles::no_mshrs            0                       # number of cycles access was blocked
system.cpu.icache.blocked_cycles::no_targets            0                       # number of cycles access was blocked
system.cpu.icache.blocked::no_mshrs                 0                       # number of cycles access was blocked
system.cpu.icache.blocked::no_targets               0                       # number of cycles access was blocked
system.cpu.icache.avg_blocked_cycles::no_mshrs          nan                       # average number of cycles each access was blocked
system.cpu.icache.avg_blocked_cycles::no_targets          nan                       # average number of cycles each access was blocked
system.cpu.icache.demand_mshr_misses::.cpu.inst          994                       # number of demand (read+write) MSHR misses
system.cpu.icache.demand_mshr_misses::total          994                       # number of demand (read+write) MSHR misses
system.cpu.icache.overall_mshr_misses::.cpu.inst          994                       # number of overall MSHR misses
system.cpu.icache.overall_mshr_misses::total          994                       # number of overall MSHR misses
system.cpu.icache.demand_mshr_miss_latency::.cpu.inst     87390000                       # number of demand (read+write) MSHR miss cycles
system.cpu.icache.demand_mshr_miss_latency::total     87390000                       # number of demand (read+write) MSHR miss cycles
system.cpu.icache.overall_mshr_miss_latency::.cpu.inst     87390000                       # number of overall MSHR miss cycles
system.cpu.icache.overall_mshr_miss_latency::total     87390000                       # number of overall MSHR miss cycles
system.cpu.icache.demand_mshr_miss_rate::.cpu.inst     0.000023                       # mshr miss rate for demand accesses
system.cpu.icache.demand_mshr_miss_rate::total     0.000023                       # mshr miss rate for demand accesses
system.cpu.icache.overall_mshr_miss_rate::.cpu.inst     0.000023                       # mshr miss rate for overall accesses
system.cpu.icache.overall_mshr_miss_rate::total     0.000023                       # mshr miss rate for overall accesses
system.cpu.icache.demand_avg_mshr_miss_latency::.cpu.inst 87917.505030                       # average overall mshr miss latency
system.cpu.icache.demand_avg_mshr_miss_latency::total 87917.505030                       # average overall mshr miss latency
system.cpu.icache.overall_avg_mshr_miss_latency::.cpu.inst 87917.505030                       # average overall mshr miss latency
system.cpu.icache.overall_avg_mshr_miss_latency::total 87917.505030                       # average overall mshr miss latency
system.cpu.icache.replacements                    739                       # number of replacements
system.cpu.icache.ReadReq_hits::.cpu.inst     43359474                       # number of ReadReq hits
system.cpu.icache.ReadReq_hits::total        43359474                       # number of ReadReq hits
system.cpu.icache.ReadReq_misses::.cpu.inst          994                       # number of ReadReq misses
system.cpu.icache.ReadReq_misses::total           994                       # number of ReadReq misses
system.cpu.icache.ReadReq_miss_latency::.cpu.inst     89378000                       # number of ReadReq miss cycles
system.cpu.icache.ReadReq_miss_latency::total     89378000                       # number of ReadReq miss cycles
system.cpu.icache.ReadReq_accesses::.cpu.inst     43360468                       # number of ReadReq accesses(hits+misses)
system.cpu.icache.ReadReq_accesses::total     43360468                       # number of ReadReq accesses(hits+misses)
system.cpu.icache.ReadReq_miss_rate::.cpu.inst     0.000023                       # miss rate for ReadReq accesses
system.cpu.icache.ReadReq_miss_rate::total     0.000023                       # miss rate for ReadReq accesses
system.cpu.icache.ReadReq_avg_miss_latency::.cpu.inst 89917.505030                       # average ReadReq miss latency
system.cpu.icache.ReadReq_avg_miss_latency::total 89917.505030                       # average ReadReq miss latency
system.cpu.icache.ReadReq_mshr_misses::.cpu.inst          994                       # number of ReadReq MSHR misses
system.cpu.icache.ReadReq_mshr_misses::total          994                       # number of ReadReq MSHR misses
system.cpu.icache.ReadReq_mshr_miss_latency::.cpu.inst     87390000                       # number of ReadReq MSHR miss cycles
system.cpu.icache.ReadReq_mshr_miss_latency::total     87390000                       # number of ReadReq MSHR miss cycles
system.cpu.icache.ReadReq_mshr_miss_rate::.cpu.inst     0.000023                       # mshr miss rate for ReadReq accesses
system.cpu.icache.ReadReq_mshr_miss_rate::total     0.000023                       # mshr miss rate for ReadReq accesses
system.cpu.icache.ReadReq_avg_mshr_miss_latency::.cpu.inst 87917.505030                       # average ReadReq mshr miss latency
system.cpu.icache.ReadReq_avg_mshr_miss_latency::total 87917.505030                       # average ReadReq mshr miss latency
system.cpu.icache.power_state.pwrStateResidencyTicks::UNDEFINED 129725719000                       # Cumulative time (in ticks) in various power states
system.cpu.icache.tags.tagsinuse           253.915467                       # Cycle average of tags in use
system.cpu.icache.tags.total_refs            43360468                       # Total number of references to valid blocks.
system.cpu.icache.tags.sampled_refs               994                       # Sample count of references to valid blocks.
system.cpu.icache.tags.avg_refs          43622.201207                       # Average number of references to valid blocks.
system.cpu.icache.tags.warmup_cycle            107000                       # Cycle when the warmup percentage was hit.
system.cpu.icache.tags.occ_blocks::.cpu.inst   253.915467                       # Average occupied blocks per requestor
system.cpu.icache.tags.occ_percent::.cpu.inst     0.991857                       # Average percentage of cache occupancy
system.cpu.icache.tags.occ_percent::total     0.991857                       # Average percentage of cache occupancy
system.cpu.icache.tags.occ_task_id_blocks::1024          255                       # Occupied blocks per task id
system.cpu.icache.tags.age_task_id_blocks_1024::0           52                       # Occupied blocks per task id
system.cpu.icache.tags.age_task_id_blocks_1024::1          119                       # Occupied blocks per task id
system.cpu.icache.tags.age_task_id_blocks_1024::2            9                       # Occupied blocks per task id
system.cpu.icache.tags.age_task_id_blocks_1024::3            1                       # Occupied blocks per task id
system.cpu.icache.tags.age_task_id_blocks_1024::4           74                       # Occupied blocks per task id
system.cpu.icache.tags.occ_task_id_percent::1024     0.996094                       # Percentage of cache occupancy per task id
system.cpu.icache.tags.tag_accesses          86721930                       # Number of tag accesses
system.cpu.icache.tags.data_accesses         86721930                       # Number of data accesses
system.cpu.icache.tags.power_state.pwrStateResidencyTicks::UNDEFINED 129725719000                       # Cumulative time (in ticks) in various power states
system.cpu.interrupts.clk_domain.clock          16000                       # Clock period in ticks
system.cpu.itb.rdAccesses                           0                       # TLB accesses on read requests
system.cpu.itb.wrAccesses                    43360468                       # TLB accesses on write requests
system.cpu.itb.rdMisses                             0                       # TLB misses on read requests
system.cpu.itb.wrMisses                            59                       # TLB misses on write requests
system.cpu.itb.walker.power_state.pwrStateResidencyTicks::UNDEFINED 129725719000                       # Cumulative time (in ticks) in various power states
system.cpu.power_state.pwrStateResidencyTicks::ON 129725719000                       # Cumulative time (in ticks) in various power states
system.cpu.thread_0.numInsts                        0                       # Number of Instructions committed
system.cpu.thread_0.numOps                          0                       # Number of Ops committed
system.cpu.thread_0.numMemRefs                      0                       # Number of Memory References
system.l2bus.trans_dist::ReadResp              147170                       # Transaction distribution
system.l2bus.trans_dist::WritebackDirty        172274                       # Transaction distribution
system.l2bus.trans_dist::CleanEvict            306319                       # Transaction distribution
system.l2bus.trans_dist::ReadExReq             103959                       # Transaction distribution
system.l2bus.trans_dist::ReadExResp            103959                       # Transaction distribution
system.l2bus.trans_dist::ReadSharedReq         147170                       # Transaction distribution
system.l2bus.pkt_count_system.cpu.icache.mem_side_port::system.l2cache.cpu_side_port         2727                       # Packet count per connected requestor and responder (bytes)
system.l2bus.pkt_count_system.cpu.dcache.mem_side_port::system.l2cache.cpu_side_port       749381                       # Packet count per connected requestor and responder (bytes)
system.l2bus.pkt_count::total                  752108                       # Packet count per connected requestor and responder (bytes)
system.l2bus.pkt_size_system.cpu.icache.mem_side_port::system.l2cache.cpu_side_port        63616                       # Cumulative packet size per connected requestor and responder (bytes)
system.l2bus.pkt_size_system.cpu.dcache.mem_side_port::system.l2cache.cpu_side_port     23120960                       # Cumulative packet size per connected requestor and responder (bytes)
system.l2bus.pkt_size::total                 23184576                       # Cumulative packet size per connected requestor and responder (bytes)
system.l2bus.snoops                            228743                       # Total snoops (count)
system.l2bus.snoopTraffic                     3913216                       # Total snoop traffic (bytes)
system.l2bus.snoop_fanout::samples             479872                       # Request fanout histogram
system.l2bus.snoop_fanout::mean              0.130393                       # Request fanout histogram
system.l2bus.snoop_fanout::stdev             0.336736                       # Request fanout histogram
system.l2bus.snoop_fanout::underflows               0      0.00%      0.00% # Request fanout histogram
system.l2bus.snoop_fanout::0                   417300     86.96%     86.96% # Request fanout histogram
system.l2bus.snoop_fanout::1                    62572     13.04%    100.00% # Request fanout histogram
system.l2bus.snoop_fanout::2                        0      0.00%    100.00% # Request fanout histogram
system.l2bus.snoop_fanout::overflows                0      0.00%    100.00% # Request fanout histogram
system.l2bus.snoop_fanout::min_value                0                       # Request fanout histogram
system.l2bus.snoop_fanout::max_value                1                       # Request fanout histogram
system.l2bus.snoop_fanout::total               479872                       # Request fanout histogram
system.l2bus.power_state.pwrStateResidencyTicks::UNDEFINED 129725719000                       # Cumulative time (in ticks) in various power states
system.l2bus.reqLayer0.occupancy            723239000                       # Layer occupancy (ticks)
system.l2bus.reqLayer0.utilization                0.6                       # Layer utilization (%)
system.l2bus.respLayer0.occupancy             2982000                       # Layer occupancy (ticks)
system.l2bus.respLayer0.utilization               0.0                       # Layer utilization (%)
system.l2bus.respLayer1.occupancy           750405000                       # Layer occupancy (ticks)
system.l2bus.respLayer1.utilization               0.6                       # Layer utilization (%)
system.l2cache.demand_hits::.cpu.inst             164                       # number of demand (read+write) hits
system.l2cache.demand_hits::.cpu.data           50007                       # number of demand (read+write) hits
system.l2cache.demand_hits::total               50171                       # number of demand (read+write) hits
system.l2cache.overall_hits::.cpu.inst            164                       # number of overall hits
system.l2cache.overall_hits::.cpu.data          50007                       # number of overall hits
system.l2cache.overall_hits::total              50171                       # number of overall hits
system.l2cache.demand_misses::.cpu.inst           830                       # number of demand (read+write) misses
system.l2cache.demand_misses::.cpu.data        200128                       # number of demand (read+write) misses
system.l2cache.demand_misses::total            200958                       # number of demand (read+write) misses
system.l2cache.overall_misses::.cpu.inst          830                       # number of overall misses
system.l2cache.overall_misses::.cpu.data       200128                       # number of overall misses
system.l2cache.overall_misses::total           200958                       # number of overall misses
system.l2cache.demand_miss_latency::.cpu.inst     80964000                       # number of demand (read+write) miss cycles
system.l2cache.demand_miss_latency::.cpu.data  20368290000                       # number of demand (read+write) miss cycles
system.l2cache.demand_miss_latency::total  20449254000                       # number of demand (read+write) miss cycles
system.l2cache.overall_miss_latency::.cpu.inst     80964000                       # number of overall miss cycles
system.l2cache.overall_miss_latency::.cpu.data  20368290000                       # number of overall miss cycles
system.l2cache.overall_miss_latency::total  20449254000                       # number of overall miss cycles
system.l2cache.demand_accesses::.cpu.inst          994                       # number of demand (read+write) accesses
system.l2cache.demand_accesses::.cpu.data       250135                       # number of demand (read+write) accesses
system.l2cache.demand_accesses::total          251129                       # number of demand (read+write) accesses
system.l2cache.overall_accesses::.cpu.inst          994                       # number of overall (read+write) accesses
system.l2cache.overall_accesses::.cpu.data       250135                       # number of overall (read+write) accesses
system.l2cache.overall_accesses::total         251129                       # number of overall (read+write) accesses
system.l2cache.demand_miss_rate::.cpu.inst     0.835010                       # miss rate for demand accesses
system.l2cache.demand_miss_rate::.cpu.data     0.800080                       # miss rate for demand accesses
system.l2cache.demand_miss_rate::total       0.800218                       # miss rate for demand accesses
system.l2cache.overall_miss_rate::.cpu.inst     0.835010                       # miss rate for overall accesses
system.l2cache.overall_miss_rate::.cpu.data     0.800080                       # miss rate for overall accesses
system.l2cache.overall_miss_rate::total      0.800218                       # miss rate for overall accesses
system.l2cache.demand_avg_miss_latency::.cpu.inst 97546.987952                       # average overall miss latency
system.l2cache.demand_avg_miss_latency::.cpu.data 101776.313160                       # average overall miss latency
system.l2cache.demand_avg_miss_latency::total 101758.845132                       # average overall miss latency
system.l2cache.overall_avg_miss_latency::.cpu.inst 97546.987952                       # average overall miss latency
system.l2cache.overall_avg_miss_latency::.cpu.data 101776.313160                       # average overall miss latency
system.l2cache.overall_avg_miss_latency::total 101758.845132                       # average overall miss latency
system.l2cache.blocked_cycles::no_mshrs             0                       # number of cycles access was blocked
system.l2cache.blocked_cycles::no_targets            0                       # number of cycles access was blocked
system.l2cache.blocked::no_mshrs                    0                       # number of cycles access was blocked
system.l2cache.blocked::no_targets                  0                       # number of cycles access was blocked
system.l2cache.avg_blocked_cycles::no_mshrs          nan                       # average number of cycles each access was blocked
system.l2cache.avg_blocked_cycles::no_targets          nan                       # average number of cycles each access was blocked
system.l2cache.writebacks::.writebacks          61144                       # number of writebacks
system.l2cache.writebacks::total                61144                       # number of writebacks
system.l2cache.demand_mshr_misses::.cpu.inst          830                       # number of demand (read+write) MSHR misses
system.l2cache.demand_mshr_misses::.cpu.data       200128                       # number of demand (read+write) MSHR misses
system.l2cache.demand_mshr_misses::total       200958                       # number of demand (read+write) MSHR misses
system.l2cache.overall_mshr_misses::.cpu.inst          830                       # number of overall MSHR misses
system.l2cache.overall_mshr_misses::.cpu.data       200128                       # number of overall MSHR misses
system.l2cache.overall_mshr_misses::total       200958                       # number of overall MSHR misses
system.l2cache.demand_mshr_miss_latency::.cpu.inst     64364000                       # number of demand (read+write) MSHR miss cycles
system.l2cache.demand_mshr_miss_latency::.cpu.data  16365730000                       # number of demand (read+write) MSHR miss cycles
system.l2cache.demand_mshr_miss_latency::total  16430094000                       # number of demand (read+write) MSHR miss cycles
system.l2cache.overall_mshr_miss_latency::.cpu.inst     64364000                       # number of overall MSHR miss cycles
system.l2cache.overall_mshr_miss_latency::.cpu.data  16365730000                       # number of overall MSHR miss cycles
system.l2cache.overall_mshr_miss_latency::total  16430094000                       # number of overall MSHR miss cycles
system.l2cache.demand_mshr_miss_rate::.cpu.inst     0.835010                       # mshr miss rate for demand accesses
system.l2cache.demand_mshr_miss_rate::.cpu.data     0.800080                       # mshr miss rate for demand accesses
system.l2cache.demand_mshr_miss_rate::total     0.800218                       # mshr miss rate for demand accesses
system.l2cache.overall_mshr_miss_rate::.cpu.inst     0.835010                       # mshr miss rate for overall accesses
system.l2cache.overall_mshr_miss_rate::.cpu.data     0.800080                       # mshr miss rate for overall accesses
system.l2cache.overall_mshr_miss_rate::total     0.800218                       # mshr miss rate for overall accesses
system.l2cache.demand_avg_mshr_miss_latency::.cpu.inst 77546.987952                       # average overall mshr miss latency
system.l2cache.demand_avg_mshr_miss_latency::.cpu.data 81776.313160                       # average overall mshr miss latency
system.l2cache.demand_avg_mshr_miss_latency::total 81758.845132                       # average overall mshr miss latency
system.l2cache.overall_avg_mshr_miss_latency::.cpu.inst 77546.987952                       # average overall mshr miss latency
system.l2cache.overall_avg_mshr_miss_latency::.cpu.data 81776.313160                       # average overall mshr miss latency
system.l2cache.overall_avg_mshr_miss_latency::total 81758.845132                       # average overall mshr miss latency
system.l2cache.replacements                    228743                       # number of replacements
system.l2cache.WritebackDirty_hits::.writebacks       111130                       # number of WritebackDirty hits
system.l2cache.WritebackDirty_hits::total       111130                       # number of WritebackDirty hits
system.l2cache.WritebackDirty_accesses::.writebacks       111130                       # number of WritebackDirty accesses(hits+misses)
system.l2cache.WritebackDirty_accesses::total       111130                       # number of WritebackDirty accesses(hits+misses)
system.l2cache.CleanEvict_mshr_misses::.writebacks        32567                       # number of CleanEvict MSHR misses
system.l2cache.CleanEvict_mshr_misses::total        32567                       # number of CleanEvict MSHR misses
system.l2cache.CleanEvict_mshr_miss_rate::.writebacks          inf                       # mshr miss rate for CleanEvict accesses
system.l2cache.CleanEvict_mshr_miss_rate::total          inf                       # mshr miss rate for CleanEvict accesses
system.l2cache.ReadExReq_hits::.cpu.data        44403                       # number of ReadExReq hits
system.l2cache.ReadExReq_hits::total            44403                       # number of ReadExReq hits
system.l2cache.ReadExReq_misses::.cpu.data        59556                       # number of ReadExReq misses
system.l2cache.ReadExReq_misses::total          59556                       # number of ReadExReq misses
system.l2cache.ReadExReq_miss_latency::.cpu.data   6488750000                       # number of ReadExReq miss cycles
system.l2cache.ReadExReq_miss_latency::total   6488750000                       # number of ReadExReq miss cycles
system.l2cache.ReadExReq_accesses::.cpu.data       103959                       # number of ReadExReq accesses(hits+misses)
system.l2cache.ReadExReq_accesses::total       103959                       # number of ReadExReq accesses(hits+misses)
system.l2cache.ReadExReq_miss_rate::.cpu.data     0.572880                       # miss rate for ReadExReq accesses
system.l2cache.ReadExReq_miss_rate::total     0.572880                       # miss rate for ReadExReq accesses
system.l2cache.ReadExReq_avg_miss_latency::.cpu.data 108952.078716                       # average ReadExReq miss latency
system.l2cache.ReadExReq_avg_miss_latency::total 108952.078716                       # average ReadExReq miss latency
system.l2cache.ReadExReq_mshr_misses::.cpu.data        59556                       # number of ReadExReq MSHR misses
system.l2cache.ReadExReq_mshr_misses::total        59556                       # number of ReadExReq MSHR misses
system.l2cache.ReadExReq_mshr_miss_latency::.cpu.data   5297630000                       # number of ReadExReq MSHR miss cycles
system.l2cache.ReadExReq_mshr_miss_latency::total   5297630000                       # number of ReadExReq MSHR miss cycles
system.l2cache.ReadExReq_mshr_miss_rate::.cpu.data     0.572880                       # mshr miss rate for ReadExReq accesses
system.l2cache.ReadExReq_mshr_miss_rate::total     0.572880                       # mshr miss rate for ReadExReq accesses
system.l2cache.ReadExReq_avg_mshr_miss_latency::.cpu.data 88952.078716                       # average ReadExReq mshr miss latency
system.l2cache.ReadExReq_avg_mshr_miss_latency::total 88952.078716                       # average ReadExReq mshr miss latency
system.l2cache.ReadSharedReq_hits::.cpu.inst          164                       # number of ReadSharedReq hits
system.l2cache.ReadSharedReq_hits::.cpu.data         5604                       # number of ReadSharedReq hits
system.l2cache.ReadSharedReq_hits::total         5768                       # number of ReadSharedReq hits
system.l2cache.ReadSharedReq_misses::.cpu.inst          830                       # number of ReadSharedReq misses
system.l2cache.ReadSharedReq_misses::.cpu.data       140572                       # number of ReadSharedReq misses
system.l2cache.ReadSharedReq_misses::total       141402                       # number of ReadSharedReq misses
system.l2cache.ReadSharedReq_miss_latency::.cpu.inst     80964000                       # number of ReadSharedReq miss cycles
system.l2cache.ReadSharedReq_miss_latency::.cpu.data  13879540000                       # number of ReadSharedReq miss cycles
system.l2cache.ReadSharedReq_miss_latency::total  13960504000                       # number of ReadSharedReq miss cycles
system.l2cache.ReadSharedReq_accesses::.cpu.inst          994                       # number of ReadSharedReq accesses(hits+misses)
system.l2cache.ReadSharedReq_accesses::.cpu.data       146176                       # number of ReadSharedReq accesses(hits+misses)
system.l2cache.ReadSharedReq_accesses::total       147170                       # number of ReadSharedReq accesses(hits+misses)
system.l2cache.ReadSharedReq_miss_rate::.cpu.inst     0.835010                       # miss rate for ReadSharedReq accesses
system.l2cache.ReadSharedReq_miss_rate::.cpu.data     0.961663                       # miss rate for ReadSharedReq accesses
system.l2cache.ReadSharedReq_miss_rate::total     0.960807                       # miss rate for ReadSharedReq accesses
system.l2cache.ReadSharedReq_avg_miss_latency::.cpu.inst 97546.987952                       # average ReadSharedReq miss latency
system.l2cache.ReadSharedReq_avg_miss_latency::.cpu.data 98736.163674                       # average ReadSharedReq miss latency
system.l2cache.ReadSharedReq_avg_miss_latency::total 98729.183463                       # average ReadSharedReq miss latency
system.l2cache.ReadSharedReq_mshr_misses::.cpu.inst          830                       # number of ReadSharedReq MSHR misses
system.l2cache.ReadSharedReq_mshr_misses::.cpu.data       140572                       # number of ReadSharedReq MSHR misses
system.l2cache.ReadSharedReq_mshr_misses::total       141402                       # number of ReadSharedReq MSHR misses
system.l2cache.ReadSharedReq_mshr_miss_latency::.cpu.inst     64364000                       # number of ReadSharedReq MSHR miss cycles
system.l2cache.ReadSharedReq_mshr_miss_latency::.cpu.data  11068100000                       # number of ReadSharedReq MSHR miss cycles
system.l2cache.ReadSharedReq_mshr_miss_latency::total  11132464000                       # number of ReadSharedReq MSHR miss cycles
system.l2cache.ReadSharedReq_mshr_miss_rate::.cpu.inst     0.835010                       # mshr miss rate for ReadSharedReq accesses
system.l2cache.ReadSharedReq_mshr_miss_rate::.cpu.data     0.961663                       # mshr miss rate for ReadSharedReq accesses
system.l2cache.ReadSharedReq_mshr_miss_rate::total     0.960807                       # mshr miss rate for ReadSharedReq accesses
system.l2cache.ReadSharedReq_avg_mshr_miss_latency::.cpu.inst 77546.987952                       # average ReadSharedReq mshr miss latency
system.l2cache.ReadSharedReq_avg_mshr_miss_latency::.cpu.data 78736.163674                       # average ReadSharedReq mshr miss latency
system.l2cache.ReadSharedReq_avg_mshr_miss_latency::total 78729.183463                       # average ReadSharedReq mshr miss latency
system.l2cache.power_state.pwrStateResidencyTicks::UNDEFINED 129725719000                       # Cumulative time (in ticks) in various power states
system.l2cache.tags.tagsinuse             1973.085777                       # Cycle average of tags in use
system.l2cache.tags.total_refs                 468412                       # Total number of references to valid blocks.
system.l2cache.tags.sampled_refs               230791                       # Sample count of references to valid blocks.
system.l2cache.tags.avg_refs                 2.029594                       # Average number of references to valid blocks.
system.l2cache.tags.warmup_cycle                86000                       # Cycle when the warmup percentage was hit.
system.l2cache.tags.occ_blocks::.writebacks   285.644269                       # Average occupied blocks per requestor
system.l2cache.tags.occ_blocks::.cpu.inst    70.517927                       # Average occupied blocks per requestor
system.l2cache.tags.occ_blocks::.cpu.data  1616.923582                       # Average occupied blocks per requestor
system.l2cache.tags.occ_percent::.writebacks     0.139475                       # Average percentage of cache occupancy
system.l2cache.tags.occ_percent::.cpu.inst     0.034433                       # Average percentage of cache occupancy
system.l2cache.tags.occ_percent::.cpu.data     0.789513                       # Average percentage of cache occupancy
system.l2cache.tags.occ_percent::total       0.963421                       # Average percentage of cache occupancy
system.l2cache.tags.occ_task_id_blocks::1024         2048                       # Occupied blocks per task id
system.l2cache.tags.age_task_id_blocks_1024::0           75                       # Occupied blocks per task id
system.l2cache.tags.age_task_id_blocks_1024::1          217                       # Occupied blocks per task id
system.l2cache.tags.age_task_id_blocks_1024::2         1756                       # Occupied blocks per task id
system.l2cache.tags.occ_task_id_percent::1024            1                       # Percentage of cache occupancy per task id
system.l2cache.tags.tag_accesses              4238623                       # Number of tag accesses
system.l2cache.tags.data_accesses             4238623                       # Number of data accesses
system.l2cache.tags.power_state.pwrStateResidencyTicks::UNDEFINED 129725719000                       # Cumulative time (in ticks) in various power states
system.mem_ctrl.avgPriority_.writebacks::samples     61144.00                       # Average QoS priority value for accepted requests
system.mem_ctrl.avgPriority_.cpu.inst::samples       830.00                       # Average QoS priority value for accepted requests
system.mem_ctrl.avgPriority_.cpu.data::samples    199924.00                       # Average QoS priority value for accepted requests
system.mem_ctrl.priorityMinLatency       0.000000018750                       # per QoS priority minimum request to response latency (s)
system.mem_ctrl.priorityMaxLatency       0.006061122500                       # per QoS priority maximum request to response latency (s)
system.mem_ctrl.numReadWriteTurnArounds          3415                       # Number of turnarounds from READ to WRITE
system.mem_ctrl.numWriteReadTurnArounds          3415                       # Number of turnarounds from WRITE to READ
system.mem_ctrl.numStayReadState               495422                       # Number of times bus staying in READ state
system.mem_ctrl.numStayWriteState               57783                       # Number of times bus staying in WRITE state
system.mem_ctrl.readReqs                       200958                       # Number of read requests accepted
system.mem_ctrl.writeReqs                       61144                       # Number of write requests accepted
system.mem_ctrl.readBursts                     200958                       # Number of controller read bursts, including those serviced by the write queue
system.mem_ctrl.writeBursts                     61144                       # Number of controller write bursts, including those merged in the write queue
system.mem_ctrl.servicedByWrQ                     204                       # Number of controller read bursts serviced by the write queue
system.mem_ctrl.mergedWrBursts                      0                       # Number of controller write bursts merged with an existing one
system.mem_ctrl.neitherReadNorWriteReqs             0                       # Number of requests that are neither read nor write
system.mem_ctrl.avgRdQLen                        1.00                       # Average read queue length when enqueuing
system.mem_ctrl.avgWrQLen                       21.16                       # Average write queue length when enqueuing
system.mem_ctrl.numRdRetry                          0                       # Number of times read queue was full causing retry
system.mem_ctrl.numWrRetry                          0                       # Number of times write queue was full causing retry
system.mem_ctrl.readPktSize::0                      0                       # Read request sizes (log2)
system.mem_ctrl.readPktSize::1                      0                       # Read request sizes (log2)
system.mem_ctrl.readPktSize::2                      0                       # Read request sizes (log2)
system.mem_ctrl.readPktSize::3                      0                       # Read request sizes (log2)
system.mem_ctrl.readPktSize::4                      0                       # Read request sizes (log2)
system.mem_ctrl.readPktSize::5                      0                       # Read request sizes (log2)
system.mem_ctrl.readPktSize::6                 200958                       # Read request sizes (log2)
system.mem_ctrl.writePktSize::0                     0                       # Write request sizes (log2)
system.mem_ctrl.writePktSize::1                     0                       # Write request sizes (log2)
system.mem_ctrl.writePktSize::2                     0                       # Write request sizes (log2)
system.mem_ctrl.writePktSize::3                     0                       # Write request sizes (log2)
system.mem_ctrl.writePktSize::4                     0                       # Write request sizes (log2)
system.mem_ctrl.writePktSize::5                     0                       # Write request sizes (log2)
system.mem_ctrl.writePktSize::6                 61144                       # Write request sizes (log2)
system.mem_ctrl.rdQLenPdf::0                   200753                       # What read queue length does an incoming req see
system.mem_ctrl.rdQLenPdf::1                        1                       # What read queue length does an incoming req see
system.mem_ctrl.rdQLenPdf::2                        0                       # What read queue length does an incoming req see
system.mem_ctrl.rdQLenPdf::3                        0                       # What read queue length does an incoming req see
system.mem_ctrl.rdQLenPdf::4                        0                       # What read queue length does an incoming req see
system.mem_ctrl.rdQLenPdf::5                        0                       # What read queue length does an incoming req see
system.mem_ctrl.rdQLenPdf::6                        0                       # What read queue length does an incoming req see
system.mem_ctrl.rdQLenPdf::7                        0                       # What read queue length does an incoming req see
system.mem_ctrl.rdQLenPdf::8                        0                       # What read queue length does an incoming req see
system.mem_ctrl.rdQLenPdf::9                        0                       # What read queue length does an incoming req see
system.mem_ctrl.rdQLenPdf::10                       0                       # What read queue length does an incoming req see
system.mem_ctrl.rdQLenPdf::11                       0                       # What read queue length does an incoming req see
system.mem_ctrl.rdQLenPdf::12                       0                       # What read queue length does an incoming req see
system.mem_ctrl.rdQLenPdf::13                       0                       # What read queue length does an incoming req see
system.mem_ctrl.rdQLenPdf::14                       0                       # What read queue length does an incoming req see
system.mem_ctrl.rdQLenPdf::15                       0                       # What read queue length does an incoming req see
system.mem_ctrl.rdQLenPdf::16                       0                       # What read queue length does an incoming req see
system.mem_ctrl.rdQLenPdf::17                       0                       # What read queue length does an incoming req see
system.mem_ctrl.rdQLenPdf::18                       0                       # What read queue length does an incoming req see
system.mem_ctrl.rdQLenPdf::19                       0                       # What read queue length does an incoming req see
system.mem_ctrl.rdQLenPdf::20                       0                       # What read queue length does an incoming req see
system.mem_ctrl.rdQLenPdf::21                       0                       # What read queue length does an incoming req see
system.mem_ctrl.rdQLenPdf::22                       0                       # What read queue length does an incoming req see
system.mem_ctrl.rdQLenPdf::23                       0                       # What read queue length does an incoming req see
system.mem_ctrl.rdQLenPdf::24                       0                       # What read queue length does an incoming req see
system.mem_ctrl.rdQLenPdf::25                       0                       # What read queue length does an incoming req see
system.mem_ctrl.rdQLenPdf::26                       0                       # What read queue length does an incoming req see
system.mem_ctrl.rdQLenPdf::27                       0                       # What read queue length does an incoming req see
system.mem_ctrl.rdQLenPdf::28                       0                       # What read queue length does an incoming req see
system.mem_ctrl.rdQLenPdf::29                       0                       # What read queue length does an incoming req see
system.mem_ctrl.rdQLenPdf::30                       0                       # What read queue length does an incoming req see
system.mem_ctrl.rdQLenPdf::31                       0                       # What read queue length does an incoming req see
system.mem_ctrl.wrQLenPdf::0                        1                       # What write queue length does an incoming req see
system.mem_ctrl.wrQLenPdf::1                        1                       # What write queue length does an incoming req see
system.mem_ctrl.wrQLenPdf::2                        1                       # What write queue length does an incoming req see
system.mem_ctrl.wrQLenPdf::3                        1                       # What write queue length does an incoming req see
system.mem_ctrl.wrQLenPdf::4                        1                       # What write queue length does an incoming req see
system.mem_ctrl.wrQLenPdf::5                        1                       # What write queue length does an incoming req see
system.mem_ctrl.wrQLenPdf::6                        1                       # What write queue length does an incoming req see
system.mem_ctrl.wrQLenPdf::7                        1                       # What write queue length does an incoming req see
system.mem_ctrl.wrQLenPdf::8                        1                       # What write queue length does an incoming req see
system.mem_ctrl.wrQLenPdf::9                        1                       # What write queue length does an incoming req see
system.mem_ctrl.wrQLenPdf::10                       1                       # What write queue length does an incoming req see
system.mem_ctrl.wrQLenPdf::11                       1                       # What write queue length does an incoming req see
system.mem_ctrl.wrQLenPdf::12                       1                       # What write queue length does an incoming req see
system.mem_ctrl.wrQLenPdf::13                       1                       # What write queue length does an incoming req see
system.mem_ctrl.wrQLenPdf::14                       1                       # What write queue length does an incoming req see
system.mem_ctrl.wrQLenPdf::15                    3170                       # What write queue length does an incoming req see
system.mem_ctrl.wrQLenPdf::16                    3191                       # What write queue length does an incoming req see
system.mem_ctrl.wrQLenPdf::17                    3403                       # What write queue length does an incoming req see
system.mem_ctrl.wrQLenPdf::18                    3435                       # What write queue length does an incoming req see
system.mem_ctrl.wrQLenPdf::19                    3470                       # What write queue length does an incoming req see
system.mem_ctrl.wrQLenPdf::20                    3436                       # What write queue length does an incoming req see
system.mem_ctrl.wrQLenPdf::21                    3449                       # What write queue length does an incoming req see
system.mem_ctrl.wrQLenPdf::22                    3424                       # What write queue length does an incoming req see
system.mem_ctrl.wrQLenPdf::23                    3415                       # What write queue length does an incoming req see
system.mem_ctrl.wrQLenPdf::24                    3415                       # What write queue length does an incoming req see
system.mem_ctrl.wrQLenPdf::25                    3415                       # What write queue length does an incoming req see
system.mem_ctrl.wrQLenPdf::26                    3415                       # What write queue length does an incoming req see
system.mem_ctrl.wrQLenPdf::27                    3415                       # What write queue length does an incoming req see
system.mem_ctrl.wrQLenPdf::28                    3415                       # What write queue length does an incoming req see
system.mem_ctrl.wrQLenPdf::29                    3415                       # What write queue length does an incoming req see
system.mem_ctrl.wrQLenPdf::30                    3415                       # What write queue length does an incoming req see
system.mem_ctrl.wrQLenPdf::31                    3415                       # What write queue length does an incoming req see
system.mem_ctrl.wrQLenPdf::32                    3415                       # What write queue length does an incoming req see
system.mem_ctrl.wrQLenPdf::33                       1                       # What write queue length does an incoming req see
system.mem_ctrl.wrQLenPdf::34                       0                       # What write queue length does an incoming req see
system.mem_ctrl.wrQLenPdf::35                       0                       # What write queue length does an incoming req see
system.mem_ctrl.wrQLenPdf::36                       0                       # What write queue length does an incoming req see
system.mem_ctrl.wrQLenPdf::37                       0                       # What write queue length does an incoming req see
system.mem_ctrl.wrQLenPdf::38                       0                       # What write queue length does an incoming req see
system.mem_ctrl.wrQLenPdf::39                       0                       # What write queue length does an incoming req see
system.mem_ctrl.wrQLenPdf::40                       0                       # What write queue length does an incoming req see
system.mem_ctrl.wrQLenPdf::41                       0                       # What write queue length does an incoming req see
system.mem_ctrl.wrQLenPdf::42                       0                       # What write queue length does an incoming req see
system.mem_ctrl.wrQLenPdf::43                       0                       # What write queue length does an incoming req see
system.mem_ctrl.wrQLenPdf::44                       0                       # What write queue length does an incoming req see
system.mem_ctrl.wrQLenPdf::45                       0                       # What write queue length does an incoming req see
system.mem_ctrl.wrQLenPdf::46                       0                       # What write queue length does an incoming req see
system.mem_ctrl.wrQLenPdf::47                       0                       # What write queue length does an incoming req see
system.mem_ctrl.wrQLenPdf::48                       0                       # What write queue length does an incoming req see
system.mem_ctrl.wrQLenPdf::49                       0                       # What write queue length does an incoming req see
system.mem_ctrl.wrQLenPdf::50                       0                       # What write queue length does an incoming req see
system.mem_ctrl.wrQLenPdf::51                       0                       # What write queue length does an incoming req see
system.mem_ctrl.wrQLenPdf::52                       0                       # What write queue length does an incoming req see
system.mem_ctrl.wrQLenPdf::53                       0                       # What write queue length does an incoming req see
system.mem_ctrl.wrQLenPdf::54                       0                       # What write queue length does an incoming req see
system.mem_ctrl.wrQLenPdf::55                       0                       # What write queue length does an incoming req see
system.mem_ctrl.wrQLenPdf::56                       0                       # What write queue length does an incoming req see
system.mem_ctrl.wrQLenPdf::57                       0                       # What write queue length does an incoming req see
system.mem_ctrl.wrQLenPdf::58                       0                       # What write queue length does an incoming req see
system.mem_ctrl.wrQLenPdf::59                       0                       # What write queue length does an incoming req see
system.mem_ctrl.wrQLenPdf::60                       0                       # What write queue length does an incoming req see
system.mem_ctrl.wrQLenPdf::61                       0                       # What write queue length does an incoming req see
system.mem_ctrl.wrQLenPdf::62                       0                       # What write queue length does an incoming req see
system.mem_ctrl.wrQLenPdf::63                       0                       # What write queue length does an incoming req see
system.mem_ctrl.rdPerTurnAround::samples         3415                       # Reads before turning the bus around for writes
system.mem_ctrl.rdPerTurnAround::mean       58.157540                       # Reads before turning the bus around for writes
system.mem_ctrl.rdPerTurnAround::gmean      37.291634                       # Reads before turning the bus around for writes
system.mem_ctrl.rdPerTurnAround::stdev     219.871743                       # Reads before turning the bus around for writes
system.mem_ctrl.rdPerTurnAround::0-127           3320     97.22%     97.22% # Reads before turning the bus around for writes
system.mem_ctrl.rdPerTurnAround::128-255           59      1.73%     98.95% # Reads before turning the bus around for writes
system.mem_ctrl.rdPerTurnAround::256-383           11      0.32%     99.27% # Reads before turning the bus around for writes
system.mem_ctrl.rdPerTurnAround::384-511            1      0.03%     99.30% # Reads before turning the bus around for writes
system.mem_ctrl.rdPerTurnAround::512-639            1      0.03%     99.33% # Reads before turning the bus around for writes
system.mem_ctrl.rdPerTurnAround::1536-1663            1      0.03%     99.36% # Reads before turning the bus around for writes
system.mem_ctrl.rdPerTurnAround::1664-1791            1      0.03%     99.39% # Reads before turning the bus around for writes
system.mem_ctrl.rdPerTurnAround::1792-1919            4      0.12%     99.50% # Reads before turning the bus around for writes
system.mem_ctrl.rdPerTurnAround::1920-2047            5      0.15%     99.65% # Reads before turning the bus around for writes
system.mem_ctrl.rdPerTurnAround::2304-2431            1      0.03%     99.68% # Reads before turning the bus around for writes
system.mem_ctrl.rdPerTurnAround::2944-3071            1      0.03%     99.71% # Reads before turning the bus around for writes
system.mem_ctrl.rdPerTurnAround::3200-3327            4      0.12%     99.82% # Reads before turning the bus around for writes
system.mem_ctrl.rdPerTurnAround::3328-3455            1      0.03%     99.85% # Reads before turning the bus around for writes
system.mem_ctrl.rdPerTurnAround::3456-3583            5      0.15%    100.00% # Reads before turning the bus around for writes
system.mem_ctrl.rdPerTurnAround::total           3415                       # Reads before turning the bus around for writes
system.mem_ctrl.wrPerTurnAround::samples         3415                       # Writes before turning the bus around for reads
system.mem_ctrl.wrPerTurnAround::mean       17.899561                       # Writes before turning the bus around for reads
system.mem_ctrl.wrPerTurnAround::gmean      17.890866                       # Writes before turning the bus around for reads
system.mem_ctrl.wrPerTurnAround::stdev       0.542982                       # Writes before turning the bus around for reads
system.mem_ctrl.wrPerTurnAround::16               224      6.56%      6.56% # Writes before turning the bus around for reads
system.mem_ctrl.wrPerTurnAround::17                20      0.59%      7.14% # Writes before turning the bus around for reads
system.mem_ctrl.wrPerTurnAround::18              3046     89.19%     96.34% # Writes before turning the bus around for reads
system.mem_ctrl.wrPerTurnAround::19               125      3.66%    100.00% # Writes before turning the bus around for reads
system.mem_ctrl.wrPerTurnAround::total           3415                       # Writes before turning the bus around for reads
system.mem_ctrl.bytesReadWrQ                    13056                       # Total number of bytes read from write queue
system.mem_ctrl.bytesReadSys                 12861312                       # Total read bytes from the system interface side
system.mem_ctrl.bytesWrittenSys               3913216                       # Total written bytes from the system interface side
system.mem_ctrl.avgRdBWSys                      99.14                       # Average system read bandwidth in MiByte/s
system.mem_ctrl.avgWrBWSys                      30.17                       # Average system write bandwidth in MiByte/s
system.mem_ctrl.totGap                   129725588000                       # Total gap between requests
system.mem_ctrl.avgGap                      494943.14                       # Average gap between requests
system.mem_ctrl.requestorReadBytes::.cpu.inst        53120                       # Per-requestor bytes read from memory
system.mem_ctrl.requestorReadBytes::.cpu.data     12795136                       # Per-requestor bytes read from memory
system.mem_ctrl.requestorWriteBytes::.writebacks      3912128                       # Per-requestor bytes write to memory
system.mem_ctrl.requestorReadRate::.cpu.inst 409479.326146575506                       # Per-requestor bytes read from memory rate (Bytes/sec)
system.mem_ctrl.requestorReadRate::.cpu.data 98632222.651238501072                       # Per-requestor bytes read from memory rate (Bytes/sec)
system.mem_ctrl.requestorWriteRate::.writebacks 30156918.999230988324                       # Per-requestor bytes write to memory rate (Bytes/sec)
system.mem_ctrl.requestorReadAccesses::.cpu.inst          830                       # Per-requestor read serviced memory accesses
system.mem_ctrl.requestorReadAccesses::.cpu.data       200128                       # Per-requestor read serviced memory accesses
system.mem_ctrl.requestorWriteAccesses::.writebacks        61144                       # Per-requestor write serviced memory accesses
system.mem_ctrl.requestorReadTotalLat::.cpu.inst     21758000                       # Per-requestor read total memory access latency
system.mem_ctrl.requestorReadTotalLat::.cpu.data   6089724250                       # Per-requestor read total memory access latency
system.mem_ctrl.requestorWriteTotalLat::.writebacks 2633269288250                       # Per-requestor write total memory access latency
system.mem_ctrl.requestorReadAvgLat::.cpu.inst     26214.46                       # Per-requestor read average memory access latency
system.mem_ctrl.requestorReadAvgLat::.cpu.data     30429.15                       # Per-requestor read average memory access latency
system.mem_ctrl.requestorWriteAvgLat::.writebacks  43066683.37                       # Per-requestor write average memory access latency
system.mem_ctrl.dram.bytes_read::.cpu.inst        53120                       # Number of bytes read from this memory
system.mem_ctrl.dram.bytes_read::.cpu.data     12808192                       # Number of bytes read from this memory
system.mem_ctrl.dram.bytes_read::total       12861312                       # Number of bytes read from this memory
system.mem_ctrl.dram.bytes_inst_read::.cpu.inst        53120                       # Number of instructions bytes read from this memory
system.mem_ctrl.dram.bytes_inst_read::total        53120                       # Number of instructions bytes read from this memory
system.mem_ctrl.dram.bytes_written::.writebacks      3913216                       # Number of bytes written to this memory
system.mem_ctrl.dram.bytes_written::total      3913216                       # Number of bytes written to this memory
system.mem_ctrl.dram.num_reads::.cpu.inst          830                       # Number of read requests responded to by this memory
system.mem_ctrl.dram.num_reads::.cpu.data       200128                       # Number of read requests responded to by this memory
system.mem_ctrl.dram.num_reads::total          200958                       # Number of read requests responded to by this memory
system.mem_ctrl.dram.num_writes::.writebacks        61144                       # Number of write requests responded to by this memory
system.mem_ctrl.dram.num_writes::total          61144                       # Number of write requests responded to by this memory
system.mem_ctrl.dram.bw_read::.cpu.inst        409479                       # Total read bandwidth from this memory (bytes/s)
system.mem_ctrl.dram.bw_read::.cpu.data      98732866                       # Total read bandwidth from this memory (bytes/s)
system.mem_ctrl.dram.bw_read::total          99142345                       # Total read bandwidth from this memory (bytes/s)
system.mem_ctrl.dram.bw_inst_read::.cpu.inst       409479                       # Instruction read bandwidth from this memory (bytes/s)
system.mem_ctrl.dram.bw_inst_read::total       409479                       # Instruction read bandwidth from this memory (bytes/s)
system.mem_ctrl.dram.bw_write::.writebacks     30165306                       # Write bandwidth from this memory (bytes/s)
system.mem_ctrl.dram.bw_write::total         30165306                       # Write bandwidth from this memory (bytes/s)
system.mem_ctrl.dram.bw_total::.writebacks     30165306                       # Total bandwidth to/from this memory (bytes/s)
system.mem_ctrl.dram.bw_total::.cpu.inst       409479                       # Total bandwidth to/from this memory (bytes/s)
system.mem_ctrl.dram.bw_total::.cpu.data     98732866                       # Total bandwidth to/from this memory (bytes/s)
system.mem_ctrl.dram.bw_total::total        129307651                       # Total bandwidth to/from this memory (bytes/s)
system.mem_ctrl.dram.readBursts                200754                       # Number of DRAM read bursts
system.mem_ctrl.dram.writeBursts                61127                       # Number of DRAM write bursts
system.mem_ctrl.dram.perBankRdBursts::0         12767                       # Per bank write bursts
system.mem_ctrl.dram.perBankRdBursts::1         13275                       # Per bank write bursts
system.mem_ctrl.dram.perBankRdBursts::2         14706                       # Per bank write bursts
system.mem_ctrl.dram.perBankRdBursts::3         12610                       # Per bank write bursts
system.mem_ctrl.dram.perBankRdBursts::4         12110                       # Per bank write bursts
system.mem_ctrl.dram.perBankRdBursts::5         12176                       # Per bank write bursts
system.mem_ctrl.dram.perBankRdBursts::6         12183                       # Per bank write bursts
system.mem_ctrl.dram.perBankRdBursts::7         12122                       # Per bank write bursts
system.mem_ctrl.dram.perBankRdBursts::8         12191                       # Per bank write bursts
system.mem_ctrl.dram.perBankRdBursts::9         12264                       # Per bank write bursts
system.mem_ctrl.dram.perBankRdBursts::10        12225                       # Per bank write bursts
system.mem_ctrl.dram.perBankRdBursts::11        12356                       # Per bank write bursts
system.mem_ctrl.dram.perBankRdBursts::12        12426                       # Per bank write bursts
system.mem_ctrl.dram.perBankRdBursts::13        12363                       # Per bank write bursts
system.mem_ctrl.dram.perBankRdBursts::14        12527                       # Per bank write bursts
system.mem_ctrl.dram.perBankRdBursts::15        12453                       # Per bank write bursts
system.mem_ctrl.dram.perBankWrBursts::0          3732                       # Per bank write bursts
system.mem_ctrl.dram.perBankWrBursts::1          4676                       # Per bank write bursts
system.mem_ctrl.dram.perBankWrBursts::2          6499                       # Per bank write bursts
system.mem_ctrl.dram.perBankWrBursts::3          4097                       # Per bank write bursts
system.mem_ctrl.dram.perBankWrBursts::4          3546                       # Per bank write bursts
system.mem_ctrl.dram.perBankWrBursts::5          3576                       # Per bank write bursts
system.mem_ctrl.dram.perBankWrBursts::6          3490                       # Per bank write bursts
system.mem_ctrl.dram.perBankWrBursts::7          3477                       # Per bank write bursts
system.mem_ctrl.dram.perBankWrBursts::8          3483                       # Per bank write bursts
system.mem_ctrl.dram.perBankWrBursts::9          3497                       # Per bank write bursts
system.mem_ctrl.dram.perBankWrBursts::10         3486                       # Per bank write bursts
system.mem_ctrl.dram.perBankWrBursts::11         3476                       # Per bank write bursts
system.mem_ctrl.dram.perBankWrBursts::12         3495                       # Per bank write bursts
system.mem_ctrl.dram.perBankWrBursts::13         3501                       # Per bank write bursts
system.mem_ctrl.dram.perBankWrBursts::14         3534                       # Per bank write bursts
system.mem_ctrl.dram.perBankWrBursts::15         3562                       # Per bank write bursts
system.mem_ctrl.dram.totQLat               2347344750                       # Total ticks spent queuing
system.mem_ctrl.dram.totBusLat             1003770000                       # Total ticks spent in databus transfers
system.mem_ctrl.dram.totMemAccLat          6111482250                       # Total ticks spent from burst creation until serviced by the DRAM
system.mem_ctrl.dram.avgQLat                 11692.64                       # Average queueing delay per DRAM burst
system.mem_ctrl.dram.avgBusLat                5000.00                       # Average bus latency per DRAM burst
system.mem_ctrl.dram.avgMemAccLat            30442.64                       # Average memory access latency per DRAM burst
system.mem_ctrl.dram.readRowHits               131355                       # Number of row buffer hits during reads
system.mem_ctrl.dram.writeRowHits               40895                       # Number of row buffer hits during writes
system.mem_ctrl.dram.readRowHitRate             65.43                       # Row buffer hit rate for reads
system.mem_ctrl.dram.writeRowHitRate            66.90                       # Row buffer hit rate for writes
system.mem_ctrl.dram.bytesPerActivate::samples        89623                       # Bytes accessed per row activation
system.mem_ctrl.dram.bytesPerActivate::mean   186.987715                       # Bytes accessed per row activation
system.mem_ctrl.dram.bytesPerActivate::gmean   116.009263                       # Bytes accessed per row activation
system.mem_ctrl.dram.bytesPerActivate::stdev   246.674473                       # Bytes accessed per row activation
system.mem_ctrl.dram.bytesPerActivate::0-127        51239     57.17%     57.17% # Bytes accessed per row activation
system.mem_ctrl.dram.bytesPerActivate::128-255        21559     24.06%     81.23% # Bytes accessed per row activation
system.mem_ctrl.dram.bytesPerActivate::256-383         5312      5.93%     87.15% # Bytes accessed per row activation
system.mem_ctrl.dram.bytesPerActivate::384-511         2042      2.28%     89.43% # Bytes accessed per row activation
system.mem_ctrl.dram.bytesPerActivate::512-639         2112      2.36%     91.79% # Bytes accessed per row activation
system.mem_ctrl.dram.bytesPerActivate::640-767         1508      1.68%     93.47% # Bytes accessed per row activation
system.mem_ctrl.dram.bytesPerActivate::768-895          443      0.49%     93.97% # Bytes accessed per row activation
system.mem_ctrl.dram.bytesPerActivate::896-1023          577      0.64%     94.61% # Bytes accessed per row activation
system.mem_ctrl.dram.bytesPerActivate::1024-1151         4831      5.39%    100.00% # Bytes accessed per row activation
system.mem_ctrl.dram.bytesPerActivate::total        89623                       # Bytes accessed per row activation
system.mem_ctrl.dram.bytesRead               12848256                       # Total number of bytes read from DRAM
system.mem_ctrl.dram.bytesWritten             3912128                       # Total number of bytes written to DRAM
system.mem_ctrl.dram.avgRdBW                99.041702                       # Average DRAM read bandwidth in MiBytes/s
system.mem_ctrl.dram.avgWrBW                30.156919                       # Average DRAM write bandwidth in MiBytes/s
system.mem_ctrl.dram.peakBW                  12800.00                       # Theoretical peak bandwidth in MiByte/s
system.mem_ctrl.dram.busUtil                     1.01                       # Data bus utilization in percentage
system.mem_ctrl.dram.busUtilRead                 0.77                       # Data bus utilization in percentage for reads
system.mem_ctrl.dram.busUtilWrite                0.24                       # Data bus utilization in percentage for writes
system.mem_ctrl.dram.pageHitRate                65.77                       # Row buffer hit rate, read and write combined
system.mem_ctrl.dram.power_state.pwrStateResidencyTicks::UNDEFINED 129725719000                       # Cumulative time (in ticks) in various power states
system.mem_ctrl.dram.rank0.actEnergy        328654200                       # Energy for activate commands per rank (pJ)
system.mem_ctrl.dram.rank0.preEnergy        174672465                       # Energy for precharge commands per rank (pJ)
system.mem_ctrl.dram.rank0.readEnergy       727915860                       # Energy for read commands per rank (pJ)
system.mem_ctrl.dram.rank0.writeEnergy      172745460                       # Energy for write commands per rank (pJ)
system.mem_ctrl.dram.rank0.refreshEnergy 10239902400.000002                       # Energy for refresh commands per rank (pJ)
system.mem_ctrl.dram.rank0.actBackEnergy  31356099000                       # Energy for active background per rank (pJ)
system.mem_ctrl.dram.rank0.preBackEnergy  23409540480                       # Energy for precharge background per rank (pJ)
system.mem_ctrl.dram.rank0.actPowerDownEnergy            0                       # Energy for active power-down per rank (pJ)
system.mem_ctrl.dram.rank0.prePowerDownEnergy            0                       # Energy for precharge power-down per rank (pJ)
system.mem_ctrl.dram.rank0.selfRefreshEnergy            0                       # Energy for self refresh per rank (pJ)
system.mem_ctrl.dram.rank0.totalEnergy    66409529865                       # Total energy per rank (pJ)
system.mem_ctrl.dram.rank0.averagePower    511.922619                       # Core power per rank (mW)
system.mem_ctrl.dram.rank0.totalIdleTime            0                       # Total Idle time Per DRAM Rank
system.mem_ctrl.dram.rank0.pwrStateTime::IDLE  60543634000                       # Time in different power states
system.mem_ctrl.dram.rank0.pwrStateTime::REF   4331600000                       # Time in different power states
system.mem_ctrl.dram.rank0.pwrStateTime::SREF            0                       # Time in different power states
system.mem_ctrl.dram.rank0.pwrStateTime::PRE_PDN            0                       # Time in different power states
system.mem_ctrl.dram.rank0.pwrStateTime::ACT  64850485000                       # Time in different power states
system.mem_ctrl.dram.rank0.pwrStateTime::ACT_PDN            0                       # Time in different power states
system.mem_ctrl.dram.rank1.actEnergy        311311140                       # Energy for activate commands per rank (pJ)
system.mem_ctrl.dram.rank1.preEnergy        165446820                       # Energy for precharge commands per rank (pJ)
system.mem_ctrl.dram.rank1.readEnergy       705467700                       # Energy for read commands per rank (pJ)
system.mem_ctrl.dram.rank1.writeEnergy      146337480                       # Energy for write commands per rank (pJ)
system.mem_ctrl.dram.rank1.refreshEnergy 10239902400.000002                       # Energy for refresh commands per rank (pJ)
system.mem_ctrl.dram.rank1.actBackEnergy  30675511590                       # Energy for active background per rank (pJ)
system.mem_ctrl.dram.rank1.preBackEnergy  23982666720                       # Energy for precharge background per rank (pJ)
system.mem_ctrl.dram.rank1.actPowerDownEnergy            0                       # Energy for active power-down per rank (pJ)
system.mem_ctrl.dram.rank1.prePowerDownEnergy            0                       # Energy for precharge power-down per rank (pJ)
system.mem_ctrl.dram.rank1.selfRefreshEnergy            0                       # Energy for self refresh per rank (pJ)
system.mem_ctrl.dram.rank1.totalEnergy    66226643850                       # Total energy per rank (pJ)
system.mem_ctrl.dram.rank1.averagePower    510.512829                       # Core power per rank (mW)
system.mem_ctrl.dram.rank1.totalIdleTime            0                       # Total Idle time Per DRAM Rank
system.mem_ctrl.dram.rank1.pwrStateTime::IDLE  62035383500                       # Time in different power states
system.mem_ctrl.dram.rank1.pwrStateTime::REF   4331600000                       # Time in different power states
system.mem_ctrl.dram.rank1.pwrStateTime::SREF            0                       # Time in different power states
system.mem_ctrl.dram.rank1.pwrStateTime::PRE_PDN            0                       # Time in different power states
system.mem_ctrl.dram.rank1.pwrStateTime::ACT  63358735500                       # Time in different power states
system.mem_ctrl.dram.rank1.pwrStateTime::ACT_PDN            0                       # Time in different power states
system.mem_ctrl.power_state.pwrStateResidencyTicks::UNDEFINED 129725719000                       # Cumulative time (in ticks) in various power states
system.membus.trans_dist::ReadResp             141402                       # Transaction distribution
system.membus.trans_dist::WritebackDirty        61144                       # Transaction distribution
system.membus.trans_dist::CleanEvict           137594                       # Transaction distribution
system.membus.trans_dist::ReadExReq             59556                       # Transaction distribution
system.membus.trans_dist::ReadExResp            59556                       # Transaction distribution
system.membus.trans_dist::ReadSharedReq        141402                       # Transaction distribution
system.membus.pkt_count_system.l2cache.mem_side_port::system.mem_ctrl.port       600654                       # Packet count per connected requestor and responder (bytes)
system.membus.pkt_count_system.l2cache.mem_side_port::total       600654                       # Packet count per connected requestor and responder (bytes)
system.membus.pkt_count::total                 600654                       # Packet count per connected requestor and responder (bytes)
system.membus.pkt_size_system.l2cache.mem_side_port::system.mem_ctrl.port     16774528                       # Cumulative packet size per connected requestor and responder (bytes)
system.membus.pkt_size_system.l2cache.mem_side_port::total     16774528                       # Cumulative packet size per connected requestor and responder (bytes)
system.membus.pkt_size::total                16774528                       # Cumulative packet size per connected requestor and responder (bytes)
system.membus.snoops                                0                       # Total snoops (count)
system.membus.snoopTraffic                          0                       # Total snoop traffic (bytes)
system.membus.snoop_fanout::samples            200958                       # Request fanout histogram
system.membus.snoop_fanout::mean                    0                       # Request fanout histogram
system.membus.snoop_fanout::stdev                   0                       # Request fanout histogram
system.membus.snoop_fanout::underflows              0      0.00%      0.00% # Request fanout histogram
system.membus.snoop_fanout::0                  200958    100.00%    100.00% # Request fanout histogram
system.membus.snoop_fanout::1                       0      0.00%    100.00% # Request fanout histogram
system.membus.snoop_fanout::overflows               0      0.00%    100.00% # Request fanout histogram
system.membus.snoop_fanout::min_value               0                       # Request fanout histogram
system.membus.snoop_fanout::max_value               0                       # Request fanout histogram
system.membus.snoop_fanout::total              200958                       # Request fanout histogram
system.membus.power_state.pwrStateResidencyTicks::UNDEFINED 129725719000                       # Cumulative time (in ticks) in various power states
system.membus.reqLayer2.occupancy           644272000                       # Layer occupancy (ticks)
system.membus.reqLayer2.utilization               0.5                       # Layer utilization (%)
system.membus.respLayer0.occupancy         1075848250                       # Layer occupancy (ticks)
system.membus.respLayer0.utilization              0.8                       # Layer utilization (%)

---------- End Simulation Statistics   ----------
