Global frequency set at 1000000000000 ticks per second
Redirecting stdout to /data/home/nta52/gem5-adaptive-bypass-cache-project/slurm_evaluation/results/X86/bt_eval/bt.S/128kB/8w/AdaptiveBypassRP/80/simout
Redirecting stderr to /data/home/nta52/gem5-adaptive-bypass-cache-project/slurm_evaluation/results/X86/bt_eval/bt.S/128kB/8w/AdaptiveBypassRP/80/simerr
gem5 Simulator System.  http://gem5.org
gem5 is copyrighted software; use the --copyright option for details.

gem5 version 20.1.0.2
gem5 compiled Mar 25 2026 23:23:37
gem5 started Mar 31 2026 23:59:46
gem5 executing on ARCH-750, pid 4175547
command line: /data/home/nta52/gem5-adaptive-bypass-cache-project/build/X86/gem5.opt -re --outdir=/data/home/nta52/gem5-adaptive-bypass-cache-project/slurm_evaluation/results/X86/bt_eval/bt.S/128kB/8w/AdaptiveBypassRP/80 /data/home/nta52/gem5-adaptive-bypass-cache-project/configs/evaluation/run_benchmark.py --l2_size 128kB --l2_assoc 8 --l2_initial_bypass_probability 80 --l2_rp AdaptiveBypassRP /data/home/nta52/gem5-adaptive-bypass-cache-project/NPB3.3.1/NPB3.3-SER/bin/bt.S.x

info: Standard input is not a terminal, disabling listeners.
Beginning simulation with L2=128kB (8-way), RP=AdaptiveBypassRP (InitProb=80)


 NAS Parallel Benchmarks (NPB3.3-SER) - BT Benchmark

 No input file inputbt.data. Using compiled defaults
 Size:   12x  12x  12
 Iterations:   60    dt:   0.010000

 Time step    1
 Time step   20
 Time step   40
 Time step   60
 Verification being performed for class S
 accuracy setting for epsilon =  0.1000000000000E-07
 Comparison of RMS-norms of residual
           1 0.1703428370954E+00 0.1703428370954E+00 0.7201925617357E-13
           2 0.1297525207003E-01 0.1297525207003E-01 0.3680617304070E-12
           3 0.3252792698948E-01 0.3252792698949E-01 0.1275660313637E-12
           4 0.2643642127515E-01 0.2643642127517E-01 0.8077661407724E-12
           5 0.1921178413175E+00 0.1921178413174E+00 0.1349364923488E-12
 Comparison of RMS-norms of solution error
           1 0.4997691334580E-03 0.4997691334581E-03 0.1963312458515E-12
           2 0.4519566678297E-04 0.4519566678296E-04 0.2412401204172E-12
           3 0.7397376517297E-04 0.7397376517292E-04 0.6065990734533E-12
           4 0.7382123863238E-04 0.7382123863244E-04 0.8375181727013E-12
           5 0.8926963098749E-03 0.8926963098749E-03 0.3485687350348E-13
 Verification Successful


 BT Benchmark Completed.
 Class           =                        S
 Size            =             12x  12x  12
 Iterations      =                       60
 Time in seconds =                     2.31
 Mop/s total     =                    98.86
 Operation type  =           floating point
 Verification    =               SUCCESSFUL
 Version         =                    3.3.1
 Compile date    =              24 Mar 2026

 Compile options:
    F77          = gfortran
    FLINK        = gfortran
    F_LIB        = (none)
    F_INC        = (none)
    FFLAGS       = -O3 -static -fno-second-underscore
    FLINKFLAGS   = -O3 -static
    RAND         = (none)


 Please send all errors/feedbacks to:

 NPB Development Team
 npb@nas.nasa.gov


Exit @ tick 2376099133000 because exiting with last active thread context
