
---------- Begin Simulation Statistics ----------
final_tick                               2376099133000                       # Number of ticks from beginning of simulation (restored from checkpoints and never reset)
host_inst_rate                                 448253                       # Simulator instruction rate (inst/s)
host_mem_usage                                 674444                       # Number of bytes of host memory used
host_op_rate                                   656736                       # Simulator op (including micro ops) rate (op/s)
host_seconds                                  1173.84                       # Real time elapsed on the host
host_tick_rate                             2024208910                       # Simulator tick rate (ticks/s)
sim_freq                                 1000000000000                       # Frequency of simulated ticks
sim_insts                                   526177570                       # Number of instructions simulated
sim_ops                                     770903537                       # Number of ops (including micro ops) simulated
sim_seconds                                  2.376099                       # Number of seconds simulated
sim_ticks                                2376099133000                       # Number of ticks simulated
system.cpu.Branches                           3021888                       # Number of branches fetched
system.cpu.committedInsts                   526177570                       # Number of instructions committed
system.cpu.committedOps                     770903537                       # Number of ops (including micro ops) committed
system.cpu.idle_fraction                     0.000000                       # Percentage of idle cycles
system.cpu.not_idle_fraction                 1.000000                       # Percentage of non-idle cycles
system.cpu.numCycles                       2376099133                       # number of cpu cycles simulated
system.cpu.numWorkItemsCompleted                    0                       # number of work items this cpu completed
system.cpu.numWorkItemsStarted                      0                       # number of work items this cpu started
system.cpu.num_busy_cycles               2376099132.999000                       # Number of busy cycles
system.cpu.num_cc_register_reads              8346350                       # number of times the CC registers were read
system.cpu.num_cc_register_writes            12896257                       # number of times the CC registers were written
system.cpu.num_conditional_control_insts      1622634                       # number of instructions that are conditional controls
system.cpu.num_fp_alu_accesses              724171277                       # Number of float alu accesses
system.cpu.num_fp_insts                     724171277                       # number of float instructions
system.cpu.num_fp_register_reads           1031628202                       # number of times the floating registers were read
system.cpu.num_fp_register_writes           638978695                       # number of times the floating registers were written
system.cpu.num_func_calls                     1356000                       # number of times a function call or return occured
system.cpu.num_idle_cycles                   0.001000                       # Number of idle cycles
system.cpu.num_int_alu_accesses             281643710                       # Number of integer alu accesses
system.cpu.num_int_insts                    281643710                       # number of integer instructions
system.cpu.num_int_register_reads           783869777                       # number of times the integer registers were read
system.cpu.num_int_register_writes           35235396                       # number of times the integer registers were written
system.cpu.num_load_insts                   151055032                       # Number of load instructions
system.cpu.num_mem_refs                     244655438                       # number of memory refs
system.cpu.num_store_insts                   93600406                       # Number of store instructions
system.cpu.num_vec_alu_accesses                     0                       # Number of vector alu accesses
system.cpu.num_vec_insts                            0                       # number of vector instructions
system.cpu.num_vec_register_reads                   0                       # number of times the vector registers were read
system.cpu.num_vec_register_writes                  0                       # number of times the vector registers were written
system.cpu.op_class::No_OpClass                122350      0.02%      0.02% # Class of executed instruction
system.cpu.op_class::IntAlu                 156847698     20.35%     20.36% # Class of executed instruction
system.cpu.op_class::IntMult                    38307      0.00%     20.37% # Class of executed instruction
system.cpu.op_class::IntDiv                       588      0.00%     20.37% # Class of executed instruction
system.cpu.op_class::FloatAdd               129162355     16.75%     37.12% # Class of executed instruction
system.cpu.op_class::FloatCmp                       0      0.00%     37.12% # Class of executed instruction
system.cpu.op_class::FloatCvt                       0      0.00%     37.12% # Class of executed instruction
system.cpu.op_class::FloatMult                      0      0.00%     37.12% # Class of executed instruction
system.cpu.op_class::FloatMultAcc                   0      0.00%     37.12% # Class of executed instruction
system.cpu.op_class::FloatDiv                       0      0.00%     37.12% # Class of executed instruction
system.cpu.op_class::FloatMisc                      0      0.00%     37.12% # Class of executed instruction
system.cpu.op_class::FloatSqrt                      0      0.00%     37.12% # Class of executed instruction
system.cpu.op_class::SimdAdd                      104      0.00%     37.12% # Class of executed instruction
system.cpu.op_class::SimdAddAcc                     0      0.00%     37.12% # Class of executed instruction
system.cpu.op_class::SimdAlu                 13572619      1.76%     38.88% # Class of executed instruction
system.cpu.op_class::SimdCmp                       18      0.00%     38.88% # Class of executed instruction
system.cpu.op_class::SimdCvt                     1518      0.00%     38.88% # Class of executed instruction
system.cpu.op_class::SimdMisc                   18290      0.00%     38.88% # Class of executed instruction
system.cpu.op_class::SimdMult                       0      0.00%     38.88% # Class of executed instruction
system.cpu.op_class::SimdMultAcc                    0      0.00%     38.88% # Class of executed instruction
system.cpu.op_class::SimdShift                    156      0.00%     38.88% # Class of executed instruction
system.cpu.op_class::SimdShiftAcc                   0      0.00%     38.88% # Class of executed instruction
system.cpu.op_class::SimdDiv                        0      0.00%     38.88% # Class of executed instruction
system.cpu.op_class::SimdSqrt                       0      0.00%     38.88% # Class of executed instruction
system.cpu.op_class::SimdFloatAdd           100487583     13.04%     51.92% # Class of executed instruction
system.cpu.op_class::SimdFloatAlu                   0      0.00%     51.92% # Class of executed instruction
system.cpu.op_class::SimdFloatCmp                   0      0.00%     51.92% # Class of executed instruction
system.cpu.op_class::SimdFloatCvt               11622      0.00%     51.92% # Class of executed instruction
system.cpu.op_class::SimdFloatDiv             1355195      0.18%     52.10% # Class of executed instruction
system.cpu.op_class::SimdFloatMisc                  0      0.00%     52.10% # Class of executed instruction
system.cpu.op_class::SimdFloatMult          124629795     16.17%     68.26% # Class of executed instruction
system.cpu.op_class::SimdFloatMultAcc               0      0.00%     68.26% # Class of executed instruction
system.cpu.op_class::SimdFloatSqrt                 10      0.00%     68.26% # Class of executed instruction
system.cpu.op_class::SimdReduceAdd                  0      0.00%     68.26% # Class of executed instruction
system.cpu.op_class::SimdReduceAlu                  0      0.00%     68.26% # Class of executed instruction
system.cpu.op_class::SimdReduceCmp                  0      0.00%     68.26% # Class of executed instruction
system.cpu.op_class::SimdFloatReduceAdd             0      0.00%     68.26% # Class of executed instruction
system.cpu.op_class::SimdFloatReduceCmp             0      0.00%     68.26% # Class of executed instruction
system.cpu.op_class::SimdAes                        0      0.00%     68.26% # Class of executed instruction
system.cpu.op_class::SimdAesMix                     0      0.00%     68.26% # Class of executed instruction
system.cpu.op_class::SimdSha1Hash                   0      0.00%     68.26% # Class of executed instruction
system.cpu.op_class::SimdSha1Hash2                  0      0.00%     68.26% # Class of executed instruction
system.cpu.op_class::SimdSha256Hash                 0      0.00%     68.26% # Class of executed instruction
system.cpu.op_class::SimdSha256Hash2                0      0.00%     68.26% # Class of executed instruction
system.cpu.op_class::SimdShaSigma2                  0      0.00%     68.26% # Class of executed instruction
system.cpu.op_class::SimdShaSigma3                  0      0.00%     68.26% # Class of executed instruction
system.cpu.op_class::SimdPredAlu                    0      0.00%     68.26% # Class of executed instruction
system.cpu.op_class::MemRead                  1225885      0.16%     68.42% # Class of executed instruction
system.cpu.op_class::MemWrite                 8411187      1.09%     69.51% # Class of executed instruction
system.cpu.op_class::FloatMemRead           149829147     19.44%     88.95% # Class of executed instruction
system.cpu.op_class::FloatMemWrite           85189219     11.05%    100.00% # Class of executed instruction
system.cpu.op_class::IprAccess                      0      0.00%    100.00% # Class of executed instruction
system.cpu.op_class::InstPrefetch                   0      0.00%    100.00% # Class of executed instruction
system.cpu.op_class::total                  770903646                       # Class of executed instruction
system.cpu.workload.numSyscalls                    85                       # Number of system calls
system.l2bus.snoop_filter.hit_multi_requests            0                       # Number of requests hitting in the snoop filter with multiple (>1) holders of the requested data.
system.l2bus.snoop_filter.hit_multi_snoops            0                       # Number of snoops hitting in the snoop filter with multiple (>1) holders of the requested data.
system.l2bus.snoop_filter.hit_single_requests      4513448                       # Number of requests hitting in the snoop filter with a single holder of the requested data.
system.l2bus.snoop_filter.hit_single_snoops       434000                       # Number of snoops hitting in the snoop filter with a single holder of the requested data.
system.l2bus.snoop_filter.tot_requests        9028176                       # Total number of requests made to the snoop filter.
system.l2bus.snoop_filter.tot_snoops           434000                       # Total number of snoops made to the snoop filter.
system.membus.snoop_filter.hit_multi_requests            0                       # Number of requests hitting in the snoop filter with multiple (>1) holders of the requested data.
system.membus.snoop_filter.hit_multi_snoops            0                       # Number of snoops hitting in the snoop filter with multiple (>1) holders of the requested data.
system.membus.snoop_filter.hit_single_requests      1103334                       # Number of requests hitting in the snoop filter with a single holder of the requested data.
system.membus.snoop_filter.hit_single_snoops            0                       # Number of snoops hitting in the snoop filter with a single holder of the requested data.
system.membus.snoop_filter.tot_requests       2209095                       # Total number of requests made to the snoop filter.
system.membus.snoop_filter.tot_snoops               0                       # Total number of snoops made to the snoop filter.
system.clk_domain.clock                          1000                       # Clock period in ticks
system.clk_domain.voltage_domain.voltage            1                       # Voltage in Volts
system.cpu.dcache.demand_hits::.cpu.data    243143464                       # number of demand (read+write) hits
system.cpu.dcache.demand_hits::total        243143464                       # number of demand (read+write) hits
system.cpu.dcache.overall_hits::.cpu.data    243143464                       # number of overall hits
system.cpu.dcache.overall_hits::total       243143464                       # number of overall hits
system.cpu.dcache.demand_misses::.cpu.data      1512015                       # number of demand (read+write) misses
system.cpu.dcache.demand_misses::total        1512015                       # number of demand (read+write) misses
system.cpu.dcache.overall_misses::.cpu.data      1512015                       # number of overall misses
system.cpu.dcache.overall_misses::total       1512015                       # number of overall misses
system.cpu.dcache.demand_miss_latency::.cpu.data 123514900000                       # number of demand (read+write) miss cycles
system.cpu.dcache.demand_miss_latency::total 123514900000                       # number of demand (read+write) miss cycles
system.cpu.dcache.overall_miss_latency::.cpu.data 123514900000                       # number of overall miss cycles
system.cpu.dcache.overall_miss_latency::total 123514900000                       # number of overall miss cycles
system.cpu.dcache.demand_accesses::.cpu.data    244655479                       # number of demand (read+write) accesses
system.cpu.dcache.demand_accesses::total    244655479                       # number of demand (read+write) accesses
system.cpu.dcache.overall_accesses::.cpu.data    244655479                       # number of overall (read+write) accesses
system.cpu.dcache.overall_accesses::total    244655479                       # number of overall (read+write) accesses
system.cpu.dcache.demand_miss_rate::.cpu.data     0.006180                       # miss rate for demand accesses
system.cpu.dcache.demand_miss_rate::total     0.006180                       # miss rate for demand accesses
system.cpu.dcache.overall_miss_rate::.cpu.data     0.006180                       # miss rate for overall accesses
system.cpu.dcache.overall_miss_rate::total     0.006180                       # miss rate for overall accesses
system.cpu.dcache.demand_avg_miss_latency::.cpu.data 81688.938271                       # average overall miss latency
system.cpu.dcache.demand_avg_miss_latency::total 81688.938271                       # average overall miss latency
system.cpu.dcache.overall_avg_miss_latency::.cpu.data 81688.938271                       # average overall miss latency
system.cpu.dcache.overall_avg_miss_latency::total 81688.938271                       # average overall miss latency
system.cpu.dcache.blocked_cycles::no_mshrs            0                       # number of cycles access was blocked
system.cpu.dcache.blocked_cycles::no_targets            0                       # number of cycles access was blocked
system.cpu.dcache.blocked::no_mshrs                 0                       # number of cycles access was blocked
system.cpu.dcache.blocked::no_targets               0                       # number of cycles access was blocked
system.cpu.dcache.avg_blocked_cycles::no_mshrs          nan                       # average number of cycles each access was blocked
system.cpu.dcache.avg_blocked_cycles::no_targets          nan                       # average number of cycles each access was blocked
system.cpu.dcache.writebacks::.writebacks       633185                       # number of writebacks
system.cpu.dcache.writebacks::total            633185                       # number of writebacks
system.cpu.dcache.demand_mshr_misses::.cpu.data      1512015                       # number of demand (read+write) MSHR misses
system.cpu.dcache.demand_mshr_misses::total      1512015                       # number of demand (read+write) MSHR misses
system.cpu.dcache.overall_mshr_misses::.cpu.data      1512015                       # number of overall MSHR misses
system.cpu.dcache.overall_mshr_misses::total      1512015                       # number of overall MSHR misses
system.cpu.dcache.demand_mshr_miss_latency::.cpu.data 120490870000                       # number of demand (read+write) MSHR miss cycles
system.cpu.dcache.demand_mshr_miss_latency::total 120490870000                       # number of demand (read+write) MSHR miss cycles
system.cpu.dcache.overall_mshr_miss_latency::.cpu.data 120490870000                       # number of overall MSHR miss cycles
system.cpu.dcache.overall_mshr_miss_latency::total 120490870000                       # number of overall MSHR miss cycles
system.cpu.dcache.demand_mshr_miss_rate::.cpu.data     0.006180                       # mshr miss rate for demand accesses
system.cpu.dcache.demand_mshr_miss_rate::total     0.006180                       # mshr miss rate for demand accesses
system.cpu.dcache.overall_mshr_miss_rate::.cpu.data     0.006180                       # mshr miss rate for overall accesses
system.cpu.dcache.overall_mshr_miss_rate::total     0.006180                       # mshr miss rate for overall accesses
system.cpu.dcache.demand_avg_mshr_miss_latency::.cpu.data 79688.938271                       # average overall mshr miss latency
system.cpu.dcache.demand_avg_mshr_miss_latency::total 79688.938271                       # average overall mshr miss latency
system.cpu.dcache.overall_avg_mshr_miss_latency::.cpu.data 79688.938271                       # average overall mshr miss latency
system.cpu.dcache.overall_avg_mshr_miss_latency::total 79688.938271                       # average overall mshr miss latency
system.cpu.dcache.replacements                1510991                       # number of replacements
system.cpu.dcache.ReadReq_hits::.cpu.data    149746973                       # number of ReadReq hits
system.cpu.dcache.ReadReq_hits::total       149746973                       # number of ReadReq hits
system.cpu.dcache.ReadReq_misses::.cpu.data      1308087                       # number of ReadReq misses
system.cpu.dcache.ReadReq_misses::total       1308087                       # number of ReadReq misses
system.cpu.dcache.ReadReq_miss_latency::.cpu.data 104046152000                       # number of ReadReq miss cycles
system.cpu.dcache.ReadReq_miss_latency::total 104046152000                       # number of ReadReq miss cycles
system.cpu.dcache.ReadReq_accesses::.cpu.data    151055060                       # number of ReadReq accesses(hits+misses)
system.cpu.dcache.ReadReq_accesses::total    151055060                       # number of ReadReq accesses(hits+misses)
system.cpu.dcache.ReadReq_miss_rate::.cpu.data     0.008660                       # miss rate for ReadReq accesses
system.cpu.dcache.ReadReq_miss_rate::total     0.008660                       # miss rate for ReadReq accesses
system.cpu.dcache.ReadReq_avg_miss_latency::.cpu.data 79540.697217                       # average ReadReq miss latency
system.cpu.dcache.ReadReq_avg_miss_latency::total 79540.697217                       # average ReadReq miss latency
system.cpu.dcache.ReadReq_mshr_misses::.cpu.data      1308087                       # number of ReadReq MSHR misses
system.cpu.dcache.ReadReq_mshr_misses::total      1308087                       # number of ReadReq MSHR misses
system.cpu.dcache.ReadReq_mshr_miss_latency::.cpu.data 101429978000                       # number of ReadReq MSHR miss cycles
system.cpu.dcache.ReadReq_mshr_miss_latency::total 101429978000                       # number of ReadReq MSHR miss cycles
system.cpu.dcache.ReadReq_mshr_miss_rate::.cpu.data     0.008660                       # mshr miss rate for ReadReq accesses
system.cpu.dcache.ReadReq_mshr_miss_rate::total     0.008660                       # mshr miss rate for ReadReq accesses
system.cpu.dcache.ReadReq_avg_mshr_miss_latency::.cpu.data 77540.697217                       # average ReadReq mshr miss latency
system.cpu.dcache.ReadReq_avg_mshr_miss_latency::total 77540.697217                       # average ReadReq mshr miss latency
system.cpu.dcache.WriteReq_hits::.cpu.data     93396491                       # number of WriteReq hits
system.cpu.dcache.WriteReq_hits::total       93396491                       # number of WriteReq hits
system.cpu.dcache.WriteReq_misses::.cpu.data       203928                       # number of WriteReq misses
system.cpu.dcache.WriteReq_misses::total       203928                       # number of WriteReq misses
system.cpu.dcache.WriteReq_miss_latency::.cpu.data  19468748000                       # number of WriteReq miss cycles
system.cpu.dcache.WriteReq_miss_latency::total  19468748000                       # number of WriteReq miss cycles
system.cpu.dcache.WriteReq_accesses::.cpu.data     93600419                       # number of WriteReq accesses(hits+misses)
system.cpu.dcache.WriteReq_accesses::total     93600419                       # number of WriteReq accesses(hits+misses)
system.cpu.dcache.WriteReq_miss_rate::.cpu.data     0.002179                       # miss rate for WriteReq accesses
system.cpu.dcache.WriteReq_miss_rate::total     0.002179                       # miss rate for WriteReq accesses
system.cpu.dcache.WriteReq_avg_miss_latency::.cpu.data 95468.734063                       # average WriteReq miss latency
system.cpu.dcache.WriteReq_avg_miss_latency::total 95468.734063                       # average WriteReq miss latency
system.cpu.dcache.WriteReq_mshr_misses::.cpu.data       203928                       # number of WriteReq MSHR misses
system.cpu.dcache.WriteReq_mshr_misses::total       203928                       # number of WriteReq MSHR misses
system.cpu.dcache.WriteReq_mshr_miss_latency::.cpu.data  19060892000                       # number of WriteReq MSHR miss cycles
system.cpu.dcache.WriteReq_mshr_miss_latency::total  19060892000                       # number of WriteReq MSHR miss cycles
system.cpu.dcache.WriteReq_mshr_miss_rate::.cpu.data     0.002179                       # mshr miss rate for WriteReq accesses
system.cpu.dcache.WriteReq_mshr_miss_rate::total     0.002179                       # mshr miss rate for WriteReq accesses
system.cpu.dcache.WriteReq_avg_mshr_miss_latency::.cpu.data 93468.734063                       # average WriteReq mshr miss latency
system.cpu.dcache.WriteReq_avg_mshr_miss_latency::total 93468.734063                       # average WriteReq mshr miss latency
system.cpu.dcache.power_state.pwrStateResidencyTicks::UNDEFINED 2376099133000                       # Cumulative time (in ticks) in various power states
system.cpu.dcache.tags.tagsinuse          1023.849671                       # Cycle average of tags in use
system.cpu.dcache.tags.total_refs           244655479                       # Total number of references to valid blocks.
system.cpu.dcache.tags.sampled_refs           1512015                       # Sample count of references to valid blocks.
system.cpu.dcache.tags.avg_refs            161.807574                       # Average number of references to valid blocks.
system.cpu.dcache.tags.warmup_cycle            224000                       # Cycle when the warmup percentage was hit.
system.cpu.dcache.tags.occ_blocks::.cpu.data  1023.849671                       # Average occupied blocks per requestor
system.cpu.dcache.tags.occ_percent::.cpu.data     0.999853                       # Average percentage of cache occupancy
system.cpu.dcache.tags.occ_percent::total     0.999853                       # Average percentage of cache occupancy
system.cpu.dcache.tags.occ_task_id_blocks::1024         1024                       # Occupied blocks per task id
system.cpu.dcache.tags.age_task_id_blocks_1024::0           25                       # Occupied blocks per task id
system.cpu.dcache.tags.age_task_id_blocks_1024::1           86                       # Occupied blocks per task id
system.cpu.dcache.tags.age_task_id_blocks_1024::2          498                       # Occupied blocks per task id
system.cpu.dcache.tags.age_task_id_blocks_1024::3          415                       # Occupied blocks per task id
system.cpu.dcache.tags.occ_task_id_percent::1024            1                       # Percentage of cache occupancy per task id
system.cpu.dcache.tags.tag_accesses         490822973                       # Number of tag accesses
system.cpu.dcache.tags.data_accesses        490822973                       # Number of data accesses
system.cpu.dcache.tags.power_state.pwrStateResidencyTicks::UNDEFINED 2376099133000                       # Cumulative time (in ticks) in various power states
system.cpu.dtb.rdAccesses                   151055061                       # TLB accesses on read requests
system.cpu.dtb.wrAccesses                    93600442                       # TLB accesses on write requests
system.cpu.dtb.rdMisses                          4202                       # TLB misses on read requests
system.cpu.dtb.wrMisses                          2551                       # TLB misses on write requests
system.cpu.dtb.walker.power_state.pwrStateResidencyTicks::UNDEFINED 2376099133000                       # Cumulative time (in ticks) in various power states
system.cpu.icache.demand_hits::.cpu.inst    841887679                       # number of demand (read+write) hits
system.cpu.icache.demand_hits::total        841887679                       # number of demand (read+write) hits
system.cpu.icache.overall_hits::.cpu.inst    841887679                       # number of overall hits
system.cpu.icache.overall_hits::total       841887679                       # number of overall hits
system.cpu.icache.demand_misses::.cpu.inst      3002713                       # number of demand (read+write) misses
system.cpu.icache.demand_misses::total        3002713                       # number of demand (read+write) misses
system.cpu.icache.overall_misses::.cpu.inst      3002713                       # number of overall misses
system.cpu.icache.overall_misses::total       3002713                       # number of overall misses
system.cpu.icache.demand_miss_latency::.cpu.inst  82522015000                       # number of demand (read+write) miss cycles
system.cpu.icache.demand_miss_latency::total  82522015000                       # number of demand (read+write) miss cycles
system.cpu.icache.overall_miss_latency::.cpu.inst  82522015000                       # number of overall miss cycles
system.cpu.icache.overall_miss_latency::total  82522015000                       # number of overall miss cycles
system.cpu.icache.demand_accesses::.cpu.inst    844890392                       # number of demand (read+write) accesses
system.cpu.icache.demand_accesses::total    844890392                       # number of demand (read+write) accesses
system.cpu.icache.overall_accesses::.cpu.inst    844890392                       # number of overall (read+write) accesses
system.cpu.icache.overall_accesses::total    844890392                       # number of overall (read+write) accesses
system.cpu.icache.demand_miss_rate::.cpu.inst     0.003554                       # miss rate for demand accesses
system.cpu.icache.demand_miss_rate::total     0.003554                       # miss rate for demand accesses
system.cpu.icache.overall_miss_rate::.cpu.inst     0.003554                       # miss rate for overall accesses
system.cpu.icache.overall_miss_rate::total     0.003554                       # miss rate for overall accesses
system.cpu.icache.demand_avg_miss_latency::.cpu.inst 27482.485006                       # average overall miss latency
system.cpu.icache.demand_avg_miss_latency::total 27482.485006                       # average overall miss latency
system.cpu.icache.overall_avg_miss_latency::.cpu.inst 27482.485006                       # average overall miss latency
system.cpu.icache.overall_avg_miss_latency::total 27482.485006                       # average overall miss latency
system.cpu.icache.blocked_cycles::no_mshrs            0                       # number of cycles access was blocked
system.cpu.icache.blocked_cycles::no_targets            0                       # number of cycles access was blocked
system.cpu.icache.blocked::no_mshrs                 0                       # number of cycles access was blocked
system.cpu.icache.blocked::no_targets               0                       # number of cycles access was blocked
system.cpu.icache.avg_blocked_cycles::no_mshrs          nan                       # average number of cycles each access was blocked
system.cpu.icache.avg_blocked_cycles::no_targets          nan                       # average number of cycles each access was blocked
system.cpu.icache.demand_mshr_misses::.cpu.inst      3002713                       # number of demand (read+write) MSHR misses
system.cpu.icache.demand_mshr_misses::total      3002713                       # number of demand (read+write) MSHR misses
system.cpu.icache.overall_mshr_misses::.cpu.inst      3002713                       # number of overall MSHR misses
system.cpu.icache.overall_mshr_misses::total      3002713                       # number of overall MSHR misses
system.cpu.icache.demand_mshr_miss_latency::.cpu.inst  76516589000                       # number of demand (read+write) MSHR miss cycles
system.cpu.icache.demand_mshr_miss_latency::total  76516589000                       # number of demand (read+write) MSHR miss cycles
system.cpu.icache.overall_mshr_miss_latency::.cpu.inst  76516589000                       # number of overall MSHR miss cycles
system.cpu.icache.overall_mshr_miss_latency::total  76516589000                       # number of overall MSHR miss cycles
system.cpu.icache.demand_mshr_miss_rate::.cpu.inst     0.003554                       # mshr miss rate for demand accesses
system.cpu.icache.demand_mshr_miss_rate::total     0.003554                       # mshr miss rate for demand accesses
system.cpu.icache.overall_mshr_miss_rate::.cpu.inst     0.003554                       # mshr miss rate for overall accesses
system.cpu.icache.overall_mshr_miss_rate::total     0.003554                       # mshr miss rate for overall accesses
system.cpu.icache.demand_avg_mshr_miss_latency::.cpu.inst 25482.485006                       # average overall mshr miss latency
system.cpu.icache.demand_avg_mshr_miss_latency::total 25482.485006                       # average overall mshr miss latency
system.cpu.icache.overall_avg_mshr_miss_latency::.cpu.inst 25482.485006                       # average overall mshr miss latency
system.cpu.icache.overall_avg_mshr_miss_latency::total 25482.485006                       # average overall mshr miss latency
system.cpu.icache.replacements                3002457                       # number of replacements
system.cpu.icache.ReadReq_hits::.cpu.inst    841887679                       # number of ReadReq hits
system.cpu.icache.ReadReq_hits::total       841887679                       # number of ReadReq hits
system.cpu.icache.ReadReq_misses::.cpu.inst      3002713                       # number of ReadReq misses
system.cpu.icache.ReadReq_misses::total       3002713                       # number of ReadReq misses
system.cpu.icache.ReadReq_miss_latency::.cpu.inst  82522015000                       # number of ReadReq miss cycles
system.cpu.icache.ReadReq_miss_latency::total  82522015000                       # number of ReadReq miss cycles
system.cpu.icache.ReadReq_accesses::.cpu.inst    844890392                       # number of ReadReq accesses(hits+misses)
system.cpu.icache.ReadReq_accesses::total    844890392                       # number of ReadReq accesses(hits+misses)
system.cpu.icache.ReadReq_miss_rate::.cpu.inst     0.003554                       # miss rate for ReadReq accesses
system.cpu.icache.ReadReq_miss_rate::total     0.003554                       # miss rate for ReadReq accesses
system.cpu.icache.ReadReq_avg_miss_latency::.cpu.inst 27482.485006                       # average ReadReq miss latency
system.cpu.icache.ReadReq_avg_miss_latency::total 27482.485006                       # average ReadReq miss latency
system.cpu.icache.ReadReq_mshr_misses::.cpu.inst      3002713                       # number of ReadReq MSHR misses
system.cpu.icache.ReadReq_mshr_misses::total      3002713                       # number of ReadReq MSHR misses
system.cpu.icache.ReadReq_mshr_miss_latency::.cpu.inst  76516589000                       # number of ReadReq MSHR miss cycles
system.cpu.icache.ReadReq_mshr_miss_latency::total  76516589000                       # number of ReadReq MSHR miss cycles
system.cpu.icache.ReadReq_mshr_miss_rate::.cpu.inst     0.003554                       # mshr miss rate for ReadReq accesses
system.cpu.icache.ReadReq_mshr_miss_rate::total     0.003554                       # mshr miss rate for ReadReq accesses
system.cpu.icache.ReadReq_avg_mshr_miss_latency::.cpu.inst 25482.485006                       # average ReadReq mshr miss latency
system.cpu.icache.ReadReq_avg_mshr_miss_latency::total 25482.485006                       # average ReadReq mshr miss latency
system.cpu.icache.power_state.pwrStateResidencyTicks::UNDEFINED 2376099133000                       # Cumulative time (in ticks) in various power states
system.cpu.icache.tags.tagsinuse           255.994572                       # Cycle average of tags in use
system.cpu.icache.tags.total_refs           844890392                       # Total number of references to valid blocks.
system.cpu.icache.tags.sampled_refs           3002713                       # Sample count of references to valid blocks.
system.cpu.icache.tags.avg_refs            281.375673                       # Average number of references to valid blocks.
system.cpu.icache.tags.warmup_cycle            107000                       # Cycle when the warmup percentage was hit.
system.cpu.icache.tags.occ_blocks::.cpu.inst   255.994572                       # Average occupied blocks per requestor
system.cpu.icache.tags.occ_percent::.cpu.inst     0.999979                       # Average percentage of cache occupancy
system.cpu.icache.tags.occ_percent::total     0.999979                       # Average percentage of cache occupancy
system.cpu.icache.tags.occ_task_id_blocks::1024          256                       # Occupied blocks per task id
system.cpu.icache.tags.age_task_id_blocks_1024::0           35                       # Occupied blocks per task id
system.cpu.icache.tags.age_task_id_blocks_1024::1          105                       # Occupied blocks per task id
system.cpu.icache.tags.age_task_id_blocks_1024::2          108                       # Occupied blocks per task id
system.cpu.icache.tags.age_task_id_blocks_1024::3            8                       # Occupied blocks per task id
system.cpu.icache.tags.occ_task_id_percent::1024            1                       # Percentage of cache occupancy per task id
system.cpu.icache.tags.tag_accesses        1692783497                       # Number of tag accesses
system.cpu.icache.tags.data_accesses       1692783497                       # Number of data accesses
system.cpu.icache.tags.power_state.pwrStateResidencyTicks::UNDEFINED 2376099133000                       # Cumulative time (in ticks) in various power states
system.cpu.interrupts.clk_domain.clock          16000                       # Clock period in ticks
system.cpu.itb.rdAccesses                           0                       # TLB accesses on read requests
system.cpu.itb.wrAccesses                   844890392                       # TLB accesses on write requests
system.cpu.itb.rdMisses                             0                       # TLB misses on read requests
system.cpu.itb.wrMisses                           158                       # TLB misses on write requests
system.cpu.itb.walker.power_state.pwrStateResidencyTicks::UNDEFINED 2376099133000                       # Cumulative time (in ticks) in various power states
system.cpu.power_state.pwrStateResidencyTicks::ON 2376099133000                       # Cumulative time (in ticks) in various power states
system.cpu.thread_0.numInsts                        0                       # Number of Instructions committed
system.cpu.thread_0.numOps                          0                       # Number of Ops committed
system.cpu.thread_0.numMemRefs                      0                       # Number of Memory References
system.l2bus.trans_dist::ReadResp             4310800                       # Transaction distribution
system.l2bus.trans_dist::WritebackDirty       1041861                       # Transaction distribution
system.l2bus.trans_dist::CleanEvict           4751822                       # Transaction distribution
system.l2bus.trans_dist::ReadExReq             203928                       # Transaction distribution
system.l2bus.trans_dist::ReadExResp            203928                       # Transaction distribution
system.l2bus.trans_dist::ReadSharedReq        4310800                       # Transaction distribution
system.l2bus.pkt_count_system.cpu.icache.mem_side_port::system.l2cache.cpu_side_port      9007883                       # Packet count per connected requestor and responder (bytes)
system.l2bus.pkt_count_system.cpu.dcache.mem_side_port::system.l2cache.cpu_side_port      4535021                       # Packet count per connected requestor and responder (bytes)
system.l2bus.pkt_count::total                13542904                       # Packet count per connected requestor and responder (bytes)
system.l2bus.pkt_size_system.cpu.icache.mem_side_port::system.l2cache.cpu_side_port    192173632                       # Cumulative packet size per connected requestor and responder (bytes)
system.l2bus.pkt_size_system.cpu.dcache.mem_side_port::system.l2cache.cpu_side_port    137292800                       # Cumulative packet size per connected requestor and responder (bytes)
system.l2bus.pkt_size::total                329466432                       # Cumulative packet size per connected requestor and responder (bytes)
system.l2bus.snoops                           1280235                       # Total snoops (count)
system.l2bus.snoopTraffic                    26155264                       # Total snoop traffic (bytes)
system.l2bus.snoop_fanout::samples            5794963                       # Request fanout histogram
system.l2bus.snoop_fanout::mean              0.074893                       # Request fanout histogram
system.l2bus.snoop_fanout::stdev             0.263218                       # Request fanout histogram
system.l2bus.snoop_fanout::underflows               0      0.00%      0.00% # Request fanout histogram
system.l2bus.snoop_fanout::0                  5360963     92.51%     92.51% # Request fanout histogram
system.l2bus.snoop_fanout::1                   434000      7.49%    100.00% # Request fanout histogram
system.l2bus.snoop_fanout::2                        0      0.00%    100.00% # Request fanout histogram
system.l2bus.snoop_fanout::overflows                0      0.00%    100.00% # Request fanout histogram
system.l2bus.snoop_fanout::min_value                0                       # Request fanout histogram
system.l2bus.snoop_fanout::max_value                1                       # Request fanout histogram
system.l2bus.snoop_fanout::total              5794963                       # Request fanout histogram
system.l2bus.power_state.pwrStateResidencyTicks::UNDEFINED 2376099133000                       # Cumulative time (in ticks) in various power states
system.l2bus.reqLayer0.occupancy          10294546000                       # Layer occupancy (ticks)
system.l2bus.reqLayer0.utilization                0.4                       # Layer utilization (%)
system.l2bus.respLayer0.occupancy          9008139000                       # Layer occupancy (ticks)
system.l2bus.respLayer0.utilization               0.4                       # Layer utilization (%)
system.l2bus.respLayer1.occupancy          4536045000                       # Layer occupancy (ticks)
system.l2bus.respLayer1.utilization               0.2                       # Layer utilization (%)
system.l2cache.demand_hits::.cpu.inst         2944150                       # number of demand (read+write) hits
system.l2cache.demand_hits::.cpu.data          464817                       # number of demand (read+write) hits
system.l2cache.demand_hits::total             3408967                       # number of demand (read+write) hits
system.l2cache.overall_hits::.cpu.inst        2944150                       # number of overall hits
system.l2cache.overall_hits::.cpu.data         464817                       # number of overall hits
system.l2cache.overall_hits::total            3408967                       # number of overall hits
system.l2cache.demand_misses::.cpu.inst         58563                       # number of demand (read+write) misses
system.l2cache.demand_misses::.cpu.data       1047198                       # number of demand (read+write) misses
system.l2cache.demand_misses::total           1105761                       # number of demand (read+write) misses
system.l2cache.overall_misses::.cpu.inst        58563                       # number of overall misses
system.l2cache.overall_misses::.cpu.data      1047198                       # number of overall misses
system.l2cache.overall_misses::total          1105761                       # number of overall misses
system.l2cache.demand_miss_latency::.cpu.inst   5681079000                       # number of demand (read+write) miss cycles
system.l2cache.demand_miss_latency::.cpu.data 106189226000                       # number of demand (read+write) miss cycles
system.l2cache.demand_miss_latency::total 111870305000                       # number of demand (read+write) miss cycles
system.l2cache.overall_miss_latency::.cpu.inst   5681079000                       # number of overall miss cycles
system.l2cache.overall_miss_latency::.cpu.data 106189226000                       # number of overall miss cycles
system.l2cache.overall_miss_latency::total 111870305000                       # number of overall miss cycles
system.l2cache.demand_accesses::.cpu.inst      3002713                       # number of demand (read+write) accesses
system.l2cache.demand_accesses::.cpu.data      1512015                       # number of demand (read+write) accesses
system.l2cache.demand_accesses::total         4514728                       # number of demand (read+write) accesses
system.l2cache.overall_accesses::.cpu.inst      3002713                       # number of overall (read+write) accesses
system.l2cache.overall_accesses::.cpu.data      1512015                       # number of overall (read+write) accesses
system.l2cache.overall_accesses::total        4514728                       # number of overall (read+write) accesses
system.l2cache.demand_miss_rate::.cpu.inst     0.019503                       # miss rate for demand accesses
system.l2cache.demand_miss_rate::.cpu.data     0.692584                       # miss rate for demand accesses
system.l2cache.demand_miss_rate::total       0.244923                       # miss rate for demand accesses
system.l2cache.overall_miss_rate::.cpu.inst     0.019503                       # miss rate for overall accesses
system.l2cache.overall_miss_rate::.cpu.data     0.692584                       # miss rate for overall accesses
system.l2cache.overall_miss_rate::total      0.244923                       # miss rate for overall accesses
system.l2cache.demand_avg_miss_latency::.cpu.inst 97007.991394                       # average overall miss latency
system.l2cache.demand_avg_miss_latency::.cpu.data 101403.197867                       # average overall miss latency
system.l2cache.demand_avg_miss_latency::total 101170.420190                       # average overall miss latency
system.l2cache.overall_avg_miss_latency::.cpu.inst 97007.991394                       # average overall miss latency
system.l2cache.overall_avg_miss_latency::.cpu.data 101403.197867                       # average overall miss latency
system.l2cache.overall_avg_miss_latency::total 101170.420190                       # average overall miss latency
system.l2cache.blocked_cycles::no_mshrs             0                       # number of cycles access was blocked
system.l2cache.blocked_cycles::no_targets            0                       # number of cycles access was blocked
system.l2cache.blocked::no_mshrs                    0                       # number of cycles access was blocked
system.l2cache.blocked::no_targets                  0                       # number of cycles access was blocked
system.l2cache.avg_blocked_cycles::no_mshrs          nan                       # average number of cycles each access was blocked
system.l2cache.avg_blocked_cycles::no_targets          nan                       # average number of cycles each access was blocked
system.l2cache.writebacks::.writebacks         408676                       # number of writebacks
system.l2cache.writebacks::total               408676                       # number of writebacks
system.l2cache.demand_mshr_misses::.cpu.inst        58563                       # number of demand (read+write) MSHR misses
system.l2cache.demand_mshr_misses::.cpu.data      1047198                       # number of demand (read+write) MSHR misses
system.l2cache.demand_mshr_misses::total      1105761                       # number of demand (read+write) MSHR misses
system.l2cache.overall_mshr_misses::.cpu.inst        58563                       # number of overall MSHR misses
system.l2cache.overall_mshr_misses::.cpu.data      1047198                       # number of overall MSHR misses
system.l2cache.overall_mshr_misses::total      1105761                       # number of overall MSHR misses
system.l2cache.demand_mshr_miss_latency::.cpu.inst   4509819000                       # number of demand (read+write) MSHR miss cycles
system.l2cache.demand_mshr_miss_latency::.cpu.data  85245266000                       # number of demand (read+write) MSHR miss cycles
system.l2cache.demand_mshr_miss_latency::total  89755085000                       # number of demand (read+write) MSHR miss cycles
system.l2cache.overall_mshr_miss_latency::.cpu.inst   4509819000                       # number of overall MSHR miss cycles
system.l2cache.overall_mshr_miss_latency::.cpu.data  85245266000                       # number of overall MSHR miss cycles
system.l2cache.overall_mshr_miss_latency::total  89755085000                       # number of overall MSHR miss cycles
system.l2cache.demand_mshr_miss_rate::.cpu.inst     0.019503                       # mshr miss rate for demand accesses
system.l2cache.demand_mshr_miss_rate::.cpu.data     0.692584                       # mshr miss rate for demand accesses
system.l2cache.demand_mshr_miss_rate::total     0.244923                       # mshr miss rate for demand accesses
system.l2cache.overall_mshr_miss_rate::.cpu.inst     0.019503                       # mshr miss rate for overall accesses
system.l2cache.overall_mshr_miss_rate::.cpu.data     0.692584                       # mshr miss rate for overall accesses
system.l2cache.overall_mshr_miss_rate::total     0.244923                       # mshr miss rate for overall accesses
system.l2cache.demand_avg_mshr_miss_latency::.cpu.inst 77007.991394                       # average overall mshr miss latency
system.l2cache.demand_avg_mshr_miss_latency::.cpu.data 81403.197867                       # average overall mshr miss latency
system.l2cache.demand_avg_mshr_miss_latency::total 81170.420190                       # average overall mshr miss latency
system.l2cache.overall_avg_mshr_miss_latency::.cpu.inst 77007.991394                       # average overall mshr miss latency
system.l2cache.overall_avg_mshr_miss_latency::.cpu.data 81403.197867                       # average overall mshr miss latency
system.l2cache.overall_avg_mshr_miss_latency::total 81170.420190                       # average overall mshr miss latency
system.l2cache.replacements                   1269191                       # number of replacements
system.l2cache.WritebackDirty_hits::.writebacks       631501                       # number of WritebackDirty hits
system.l2cache.WritebackDirty_hits::total       631501                       # number of WritebackDirty hits
system.l2cache.WritebackDirty_misses::.writebacks         1684                       # number of WritebackDirty misses
system.l2cache.WritebackDirty_misses::total         1684                       # number of WritebackDirty misses
system.l2cache.WritebackDirty_accesses::.writebacks       633185                       # number of WritebackDirty accesses(hits+misses)
system.l2cache.WritebackDirty_accesses::total       633185                       # number of WritebackDirty accesses(hits+misses)
system.l2cache.WritebackDirty_miss_rate::.writebacks     0.002660                       # miss rate for WritebackDirty accesses
system.l2cache.WritebackDirty_miss_rate::total     0.002660                       # miss rate for WritebackDirty accesses
system.l2cache.WritebackDirty_mshr_misses::.writebacks         1684                       # number of WritebackDirty MSHR misses
system.l2cache.WritebackDirty_mshr_misses::total         1684                       # number of WritebackDirty MSHR misses
system.l2cache.WritebackDirty_mshr_miss_rate::.writebacks     0.002660                       # mshr miss rate for WritebackDirty accesses
system.l2cache.WritebackDirty_mshr_miss_rate::total     0.002660                       # mshr miss rate for WritebackDirty accesses
system.l2cache.CleanEvict_mshr_misses::.writebacks       255415                       # number of CleanEvict MSHR misses
system.l2cache.CleanEvict_mshr_misses::total       255415                       # number of CleanEvict MSHR misses
system.l2cache.CleanEvict_mshr_miss_rate::.writebacks          inf                       # mshr miss rate for CleanEvict accesses
system.l2cache.CleanEvict_mshr_miss_rate::total          inf                       # mshr miss rate for CleanEvict accesses
system.l2cache.ReadExReq_hits::.cpu.data        23509                       # number of ReadExReq hits
system.l2cache.ReadExReq_hits::total            23509                       # number of ReadExReq hits
system.l2cache.ReadExReq_misses::.cpu.data       180419                       # number of ReadExReq misses
system.l2cache.ReadExReq_misses::total         180419                       # number of ReadExReq misses
system.l2cache.ReadExReq_miss_latency::.cpu.data  17952907000                       # number of ReadExReq miss cycles
system.l2cache.ReadExReq_miss_latency::total  17952907000                       # number of ReadExReq miss cycles
system.l2cache.ReadExReq_accesses::.cpu.data       203928                       # number of ReadExReq accesses(hits+misses)
system.l2cache.ReadExReq_accesses::total       203928                       # number of ReadExReq accesses(hits+misses)
system.l2cache.ReadExReq_miss_rate::.cpu.data     0.884719                       # miss rate for ReadExReq accesses
system.l2cache.ReadExReq_miss_rate::total     0.884719                       # miss rate for ReadExReq accesses
system.l2cache.ReadExReq_avg_miss_latency::.cpu.data 99506.742638                       # average ReadExReq miss latency
system.l2cache.ReadExReq_avg_miss_latency::total 99506.742638                       # average ReadExReq miss latency
system.l2cache.ReadExReq_mshr_misses::.cpu.data       180419                       # number of ReadExReq MSHR misses
system.l2cache.ReadExReq_mshr_misses::total       180419                       # number of ReadExReq MSHR misses
system.l2cache.ReadExReq_mshr_miss_latency::.cpu.data  14344527000                       # number of ReadExReq MSHR miss cycles
system.l2cache.ReadExReq_mshr_miss_latency::total  14344527000                       # number of ReadExReq MSHR miss cycles
system.l2cache.ReadExReq_mshr_miss_rate::.cpu.data     0.884719                       # mshr miss rate for ReadExReq accesses
system.l2cache.ReadExReq_mshr_miss_rate::total     0.884719                       # mshr miss rate for ReadExReq accesses
system.l2cache.ReadExReq_avg_mshr_miss_latency::.cpu.data 79506.742638                       # average ReadExReq mshr miss latency
system.l2cache.ReadExReq_avg_mshr_miss_latency::total 79506.742638                       # average ReadExReq mshr miss latency
system.l2cache.ReadSharedReq_hits::.cpu.inst      2944150                       # number of ReadSharedReq hits
system.l2cache.ReadSharedReq_hits::.cpu.data       441308                       # number of ReadSharedReq hits
system.l2cache.ReadSharedReq_hits::total      3385458                       # number of ReadSharedReq hits
system.l2cache.ReadSharedReq_misses::.cpu.inst        58563                       # number of ReadSharedReq misses
system.l2cache.ReadSharedReq_misses::.cpu.data       866779                       # number of ReadSharedReq misses
system.l2cache.ReadSharedReq_misses::total       925342                       # number of ReadSharedReq misses
system.l2cache.ReadSharedReq_miss_latency::.cpu.inst   5681079000                       # number of ReadSharedReq miss cycles
system.l2cache.ReadSharedReq_miss_latency::.cpu.data  88236319000                       # number of ReadSharedReq miss cycles
system.l2cache.ReadSharedReq_miss_latency::total  93917398000                       # number of ReadSharedReq miss cycles
system.l2cache.ReadSharedReq_accesses::.cpu.inst      3002713                       # number of ReadSharedReq accesses(hits+misses)
system.l2cache.ReadSharedReq_accesses::.cpu.data      1308087                       # number of ReadSharedReq accesses(hits+misses)
system.l2cache.ReadSharedReq_accesses::total      4310800                       # number of ReadSharedReq accesses(hits+misses)
system.l2cache.ReadSharedReq_miss_rate::.cpu.inst     0.019503                       # miss rate for ReadSharedReq accesses
system.l2cache.ReadSharedReq_miss_rate::.cpu.data     0.662631                       # miss rate for ReadSharedReq accesses
system.l2cache.ReadSharedReq_miss_rate::total     0.214657                       # miss rate for ReadSharedReq accesses
system.l2cache.ReadSharedReq_avg_miss_latency::.cpu.inst 97007.991394                       # average ReadSharedReq miss latency
system.l2cache.ReadSharedReq_avg_miss_latency::.cpu.data 101797.942728                       # average ReadSharedReq miss latency
system.l2cache.ReadSharedReq_avg_miss_latency::total 101494.796518                       # average ReadSharedReq miss latency
system.l2cache.ReadSharedReq_mshr_misses::.cpu.inst        58563                       # number of ReadSharedReq MSHR misses
system.l2cache.ReadSharedReq_mshr_misses::.cpu.data       866779                       # number of ReadSharedReq MSHR misses
system.l2cache.ReadSharedReq_mshr_misses::total       925342                       # number of ReadSharedReq MSHR misses
system.l2cache.ReadSharedReq_mshr_miss_latency::.cpu.inst   4509819000                       # number of ReadSharedReq MSHR miss cycles
system.l2cache.ReadSharedReq_mshr_miss_latency::.cpu.data  70900739000                       # number of ReadSharedReq MSHR miss cycles
system.l2cache.ReadSharedReq_mshr_miss_latency::total  75410558000                       # number of ReadSharedReq MSHR miss cycles
system.l2cache.ReadSharedReq_mshr_miss_rate::.cpu.inst     0.019503                       # mshr miss rate for ReadSharedReq accesses
system.l2cache.ReadSharedReq_mshr_miss_rate::.cpu.data     0.662631                       # mshr miss rate for ReadSharedReq accesses
system.l2cache.ReadSharedReq_mshr_miss_rate::total     0.214657                       # mshr miss rate for ReadSharedReq accesses
system.l2cache.ReadSharedReq_avg_mshr_miss_latency::.cpu.inst 77007.991394                       # average ReadSharedReq mshr miss latency
system.l2cache.ReadSharedReq_avg_mshr_miss_latency::.cpu.data 81797.942728                       # average ReadSharedReq mshr miss latency
system.l2cache.ReadSharedReq_avg_mshr_miss_latency::total 81494.796518                       # average ReadSharedReq mshr miss latency
system.l2cache.power_state.pwrStateResidencyTicks::UNDEFINED 2376099133000                       # Cumulative time (in ticks) in various power states
system.l2cache.replacement_policy.totalBypasses        12728                       # Total number of cache bypasses
system.l2cache.replacement_policy.effectiveBypasses         3069                       # Bypasses that correctly skipped non-reused blocks
system.l2cache.replacement_policy.ineffectiveBypasses          715                       # Bypasses that incorrectly skipped requested blocks
system.l2cache.replacement_policy.virtualEffectiveBypasses        29341                       # Virtual bypasses correctly predicting non-reused blocks
system.l2cache.replacement_policy.virtualIneffectiveBypasses        17797                       # Virtual bypasses incorrectly predicting requested blocks
system.l2cache.tags.tagsinuse             2047.782473                       # Cycle average of tags in use
system.l2cache.tags.total_refs                8760033                       # Total number of references to valid blocks.
system.l2cache.tags.sampled_refs              1271239                       # Sample count of references to valid blocks.
system.l2cache.tags.avg_refs                 6.890941                       # Average number of references to valid blocks.
system.l2cache.tags.warmup_cycle               447000                       # Cycle when the warmup percentage was hit.
system.l2cache.tags.occ_blocks::.writebacks   183.781816                       # Average occupied blocks per requestor
system.l2cache.tags.occ_blocks::.cpu.inst   270.793233                       # Average occupied blocks per requestor
system.l2cache.tags.occ_blocks::.cpu.data  1593.207424                       # Average occupied blocks per requestor
system.l2cache.tags.occ_percent::.writebacks     0.089737                       # Average percentage of cache occupancy
system.l2cache.tags.occ_percent::.cpu.inst     0.132223                       # Average percentage of cache occupancy
system.l2cache.tags.occ_percent::.cpu.data     0.777933                       # Average percentage of cache occupancy
system.l2cache.tags.occ_percent::total       0.999894                       # Average percentage of cache occupancy
system.l2cache.tags.occ_task_id_blocks::1024         2048                       # Occupied blocks per task id
system.l2cache.tags.age_task_id_blocks_1024::0           67                       # Occupied blocks per task id
system.l2cache.tags.age_task_id_blocks_1024::1          173                       # Occupied blocks per task id
system.l2cache.tags.age_task_id_blocks_1024::2          849                       # Occupied blocks per task id
system.l2cache.tags.age_task_id_blocks_1024::3          959                       # Occupied blocks per task id
system.l2cache.tags.occ_task_id_percent::1024            1                       # Percentage of cache occupancy per task id
system.l2cache.tags.tag_accesses             73496647                       # Number of tag accesses
system.l2cache.tags.data_accesses            73496647                       # Number of data accesses
system.l2cache.tags.power_state.pwrStateResidencyTicks::UNDEFINED 2376099133000                       # Cumulative time (in ticks) in various power states
system.mem_ctrl.avgPriority_.writebacks::samples    410356.00                       # Average QoS priority value for accepted requests
system.mem_ctrl.avgPriority_.cpu.inst::samples     58563.00                       # Average QoS priority value for accepted requests
system.mem_ctrl.avgPriority_.cpu.data::samples   1034929.00                       # Average QoS priority value for accepted requests
system.mem_ctrl.priorityMinLatency       0.000000018750                       # per QoS priority minimum request to response latency (s)
system.mem_ctrl.priorityMaxLatency       0.015478890500                       # per QoS priority maximum request to response latency (s)
system.mem_ctrl.numReadWriteTurnArounds         23604                       # Number of turnarounds from READ to WRITE
system.mem_ctrl.numWriteReadTurnArounds         23604                       # Number of turnarounds from WRITE to READ
system.mem_ctrl.numStayReadState              3195345                       # Number of times bus staying in READ state
system.mem_ctrl.numStayWriteState              387143                       # Number of times bus staying in WRITE state
system.mem_ctrl.readReqs                      1105761                       # Number of read requests accepted
system.mem_ctrl.writeReqs                      410360                       # Number of write requests accepted
system.mem_ctrl.readBursts                    1105761                       # Number of controller read bursts, including those serviced by the write queue
system.mem_ctrl.writeBursts                    410360                       # Number of controller write bursts, including those merged in the write queue
system.mem_ctrl.servicedByWrQ                   12269                       # Number of controller read bursts serviced by the write queue
system.mem_ctrl.mergedWrBursts                      4                       # Number of controller write bursts merged with an existing one
system.mem_ctrl.neitherReadNorWriteReqs             0                       # Number of requests that are neither read nor write
system.mem_ctrl.avgRdQLen                        1.00                       # Average read queue length when enqueuing
system.mem_ctrl.avgWrQLen                       24.72                       # Average write queue length when enqueuing
system.mem_ctrl.numRdRetry                          0                       # Number of times read queue was full causing retry
system.mem_ctrl.numWrRetry                          0                       # Number of times write queue was full causing retry
system.mem_ctrl.readPktSize::0                      0                       # Read request sizes (log2)
system.mem_ctrl.readPktSize::1                      0                       # Read request sizes (log2)
system.mem_ctrl.readPktSize::2                      0                       # Read request sizes (log2)
system.mem_ctrl.readPktSize::3                      0                       # Read request sizes (log2)
system.mem_ctrl.readPktSize::4                      0                       # Read request sizes (log2)
system.mem_ctrl.readPktSize::5                      0                       # Read request sizes (log2)
system.mem_ctrl.readPktSize::6                1105761                       # Read request sizes (log2)
system.mem_ctrl.writePktSize::0                     0                       # Write request sizes (log2)
system.mem_ctrl.writePktSize::1                     0                       # Write request sizes (log2)
system.mem_ctrl.writePktSize::2                     0                       # Write request sizes (log2)
system.mem_ctrl.writePktSize::3                     0                       # Write request sizes (log2)
system.mem_ctrl.writePktSize::4                     0                       # Write request sizes (log2)
system.mem_ctrl.writePktSize::5                     0                       # Write request sizes (log2)
system.mem_ctrl.writePktSize::6                410360                       # Write request sizes (log2)
system.mem_ctrl.rdQLenPdf::0                  1093492                       # What read queue length does an incoming req see
system.mem_ctrl.rdQLenPdf::1                        0                       # What read queue length does an incoming req see
system.mem_ctrl.rdQLenPdf::2                        0                       # What read queue length does an incoming req see
system.mem_ctrl.rdQLenPdf::3                        0                       # What read queue length does an incoming req see
system.mem_ctrl.rdQLenPdf::4                        0                       # What read queue length does an incoming req see
system.mem_ctrl.rdQLenPdf::5                        0                       # What read queue length does an incoming req see
system.mem_ctrl.rdQLenPdf::6                        0                       # What read queue length does an incoming req see
system.mem_ctrl.rdQLenPdf::7                        0                       # What read queue length does an incoming req see
system.mem_ctrl.rdQLenPdf::8                        0                       # What read queue length does an incoming req see
system.mem_ctrl.rdQLenPdf::9                        0                       # What read queue length does an incoming req see
system.mem_ctrl.rdQLenPdf::10                       0                       # What read queue length does an incoming req see
system.mem_ctrl.rdQLenPdf::11                       0                       # What read queue length does an incoming req see
system.mem_ctrl.rdQLenPdf::12                       0                       # What read queue length does an incoming req see
system.mem_ctrl.rdQLenPdf::13                       0                       # What read queue length does an incoming req see
system.mem_ctrl.rdQLenPdf::14                       0                       # What read queue length does an incoming req see
system.mem_ctrl.rdQLenPdf::15                       0                       # What read queue length does an incoming req see
system.mem_ctrl.rdQLenPdf::16                       0                       # What read queue length does an incoming req see
system.mem_ctrl.rdQLenPdf::17                       0                       # What read queue length does an incoming req see
system.mem_ctrl.rdQLenPdf::18                       0                       # What read queue length does an incoming req see
system.mem_ctrl.rdQLenPdf::19                       0                       # What read queue length does an incoming req see
system.mem_ctrl.rdQLenPdf::20                       0                       # What read queue length does an incoming req see
system.mem_ctrl.rdQLenPdf::21                       0                       # What read queue length does an incoming req see
system.mem_ctrl.rdQLenPdf::22                       0                       # What read queue length does an incoming req see
system.mem_ctrl.rdQLenPdf::23                       0                       # What read queue length does an incoming req see
system.mem_ctrl.rdQLenPdf::24                       0                       # What read queue length does an incoming req see
system.mem_ctrl.rdQLenPdf::25                       0                       # What read queue length does an incoming req see
system.mem_ctrl.rdQLenPdf::26                       0                       # What read queue length does an incoming req see
system.mem_ctrl.rdQLenPdf::27                       0                       # What read queue length does an incoming req see
system.mem_ctrl.rdQLenPdf::28                       0                       # What read queue length does an incoming req see
system.mem_ctrl.rdQLenPdf::29                       0                       # What read queue length does an incoming req see
system.mem_ctrl.rdQLenPdf::30                       0                       # What read queue length does an incoming req see
system.mem_ctrl.rdQLenPdf::31                       0                       # What read queue length does an incoming req see
system.mem_ctrl.wrQLenPdf::0                        1                       # What write queue length does an incoming req see
system.mem_ctrl.wrQLenPdf::1                        1                       # What write queue length does an incoming req see
system.mem_ctrl.wrQLenPdf::2                        1                       # What write queue length does an incoming req see
system.mem_ctrl.wrQLenPdf::3                        1                       # What write queue length does an incoming req see
system.mem_ctrl.wrQLenPdf::4                        1                       # What write queue length does an incoming req see
system.mem_ctrl.wrQLenPdf::5                        1                       # What write queue length does an incoming req see
system.mem_ctrl.wrQLenPdf::6                        1                       # What write queue length does an incoming req see
system.mem_ctrl.wrQLenPdf::7                        1                       # What write queue length does an incoming req see
system.mem_ctrl.wrQLenPdf::8                        1                       # What write queue length does an incoming req see
system.mem_ctrl.wrQLenPdf::9                        1                       # What write queue length does an incoming req see
system.mem_ctrl.wrQLenPdf::10                       1                       # What write queue length does an incoming req see
system.mem_ctrl.wrQLenPdf::11                       1                       # What write queue length does an incoming req see
system.mem_ctrl.wrQLenPdf::12                       1                       # What write queue length does an incoming req see
system.mem_ctrl.wrQLenPdf::13                       1                       # What write queue length does an incoming req see
system.mem_ctrl.wrQLenPdf::14                       1                       # What write queue length does an incoming req see
system.mem_ctrl.wrQLenPdf::15                   15460                       # What write queue length does an incoming req see
system.mem_ctrl.wrQLenPdf::16                   16316                       # What write queue length does an incoming req see
system.mem_ctrl.wrQLenPdf::17                   23183                       # What write queue length does an incoming req see
system.mem_ctrl.wrQLenPdf::18                   24000                       # What write queue length does an incoming req see
system.mem_ctrl.wrQLenPdf::19                   23853                       # What write queue length does an incoming req see
system.mem_ctrl.wrQLenPdf::20                   23664                       # What write queue length does an incoming req see
system.mem_ctrl.wrQLenPdf::21                   24129                       # What write queue length does an incoming req see
system.mem_ctrl.wrQLenPdf::22                   23650                       # What write queue length does an incoming req see
system.mem_ctrl.wrQLenPdf::23                   23617                       # What write queue length does an incoming req see
system.mem_ctrl.wrQLenPdf::24                   23610                       # What write queue length does an incoming req see
system.mem_ctrl.wrQLenPdf::25                   23614                       # What write queue length does an incoming req see
system.mem_ctrl.wrQLenPdf::26                   23604                       # What write queue length does an incoming req see
system.mem_ctrl.wrQLenPdf::27                   23606                       # What write queue length does an incoming req see
system.mem_ctrl.wrQLenPdf::28                   23605                       # What write queue length does an incoming req see
system.mem_ctrl.wrQLenPdf::29                   23607                       # What write queue length does an incoming req see
system.mem_ctrl.wrQLenPdf::30                   23604                       # What write queue length does an incoming req see
system.mem_ctrl.wrQLenPdf::31                   23604                       # What write queue length does an incoming req see
system.mem_ctrl.wrQLenPdf::32                   23604                       # What write queue length does an incoming req see
system.mem_ctrl.wrQLenPdf::33                      11                       # What write queue length does an incoming req see
system.mem_ctrl.wrQLenPdf::34                       0                       # What write queue length does an incoming req see
system.mem_ctrl.wrQLenPdf::35                       0                       # What write queue length does an incoming req see
system.mem_ctrl.wrQLenPdf::36                       0                       # What write queue length does an incoming req see
system.mem_ctrl.wrQLenPdf::37                       0                       # What write queue length does an incoming req see
system.mem_ctrl.wrQLenPdf::38                       0                       # What write queue length does an incoming req see
system.mem_ctrl.wrQLenPdf::39                       0                       # What write queue length does an incoming req see
system.mem_ctrl.wrQLenPdf::40                       0                       # What write queue length does an incoming req see
system.mem_ctrl.wrQLenPdf::41                       0                       # What write queue length does an incoming req see
system.mem_ctrl.wrQLenPdf::42                       0                       # What write queue length does an incoming req see
system.mem_ctrl.wrQLenPdf::43                       0                       # What write queue length does an incoming req see
system.mem_ctrl.wrQLenPdf::44                       0                       # What write queue length does an incoming req see
system.mem_ctrl.wrQLenPdf::45                       0                       # What write queue length does an incoming req see
system.mem_ctrl.wrQLenPdf::46                       0                       # What write queue length does an incoming req see
system.mem_ctrl.wrQLenPdf::47                       0                       # What write queue length does an incoming req see
system.mem_ctrl.wrQLenPdf::48                       0                       # What write queue length does an incoming req see
system.mem_ctrl.wrQLenPdf::49                       0                       # What write queue length does an incoming req see
system.mem_ctrl.wrQLenPdf::50                       0                       # What write queue length does an incoming req see
system.mem_ctrl.wrQLenPdf::51                       0                       # What write queue length does an incoming req see
system.mem_ctrl.wrQLenPdf::52                       0                       # What write queue length does an incoming req see
system.mem_ctrl.wrQLenPdf::53                       0                       # What write queue length does an incoming req see
system.mem_ctrl.wrQLenPdf::54                       0                       # What write queue length does an incoming req see
system.mem_ctrl.wrQLenPdf::55                       0                       # What write queue length does an incoming req see
system.mem_ctrl.wrQLenPdf::56                       0                       # What write queue length does an incoming req see
system.mem_ctrl.wrQLenPdf::57                       0                       # What write queue length does an incoming req see
system.mem_ctrl.wrQLenPdf::58                       0                       # What write queue length does an incoming req see
system.mem_ctrl.wrQLenPdf::59                       0                       # What write queue length does an incoming req see
system.mem_ctrl.wrQLenPdf::60                       0                       # What write queue length does an incoming req see
system.mem_ctrl.wrQLenPdf::61                       0                       # What write queue length does an incoming req see
system.mem_ctrl.wrQLenPdf::62                       0                       # What write queue length does an incoming req see
system.mem_ctrl.wrQLenPdf::63                       0                       # What write queue length does an incoming req see
system.mem_ctrl.rdPerTurnAround::samples        23604                       # Reads before turning the bus around for writes
system.mem_ctrl.rdPerTurnAround::mean       46.325623                       # Reads before turning the bus around for writes
system.mem_ctrl.rdPerTurnAround::gmean      37.320068                       # Reads before turning the bus around for writes
system.mem_ctrl.rdPerTurnAround::stdev      57.817733                       # Reads before turning the bus around for writes
system.mem_ctrl.rdPerTurnAround::0-127          23172     98.17%     98.17% # Reads before turning the bus around for writes
system.mem_ctrl.rdPerTurnAround::128-255          360      1.53%     99.69% # Reads before turning the bus around for writes
system.mem_ctrl.rdPerTurnAround::256-383            8      0.03%     99.73% # Reads before turning the bus around for writes
system.mem_ctrl.rdPerTurnAround::384-511            1      0.00%     99.73% # Reads before turning the bus around for writes
system.mem_ctrl.rdPerTurnAround::640-767            3      0.01%     99.75% # Reads before turning the bus around for writes
system.mem_ctrl.rdPerTurnAround::768-895            6      0.03%     99.77% # Reads before turning the bus around for writes
system.mem_ctrl.rdPerTurnAround::896-1023           38      0.16%     99.93% # Reads before turning the bus around for writes
system.mem_ctrl.rdPerTurnAround::1024-1151           15      0.06%    100.00% # Reads before turning the bus around for writes
system.mem_ctrl.rdPerTurnAround::2560-2687            1      0.00%    100.00% # Reads before turning the bus around for writes
system.mem_ctrl.rdPerTurnAround::total          23604                       # Reads before turning the bus around for writes
system.mem_ctrl.wrPerTurnAround::samples        23604                       # Writes before turning the bus around for reads
system.mem_ctrl.wrPerTurnAround::mean       17.383960                       # Writes before turning the bus around for reads
system.mem_ctrl.wrPerTurnAround::gmean      17.357087                       # Writes before turning the bus around for reads
system.mem_ctrl.wrPerTurnAround::stdev       0.955014                       # Writes before turning the bus around for reads
system.mem_ctrl.wrPerTurnAround::16              7241     30.68%     30.68% # Writes before turning the bus around for reads
system.mem_ctrl.wrPerTurnAround::17               786      3.33%     34.01% # Writes before turning the bus around for reads
system.mem_ctrl.wrPerTurnAround::18             14854     62.93%     96.94% # Writes before turning the bus around for reads
system.mem_ctrl.wrPerTurnAround::19               719      3.05%     99.98% # Writes before turning the bus around for reads
system.mem_ctrl.wrPerTurnAround::20                 4      0.02%    100.00% # Writes before turning the bus around for reads
system.mem_ctrl.wrPerTurnAround::total          23604                       # Writes before turning the bus around for reads
system.mem_ctrl.bytesReadWrQ                   785216                       # Total number of bytes read from write queue
system.mem_ctrl.bytesReadSys                 70768704                       # Total read bytes from the system interface side
system.mem_ctrl.bytesWrittenSys              26263040                       # Total written bytes from the system interface side
[...]
system.mem_ctrl.requestorReadRate::.cpu.data 27875712.372477013618                       # Per-requestor bytes read from memory rate (Bytes/sec)
system.mem_ctrl.requestorWriteRate::.writebacks 11052225.740616859868                       # Per-requestor bytes write to memory rate (Bytes/sec)
system.mem_ctrl.requestorReadAccesses::.cpu.inst        58563                       # Per-requestor read serviced memory accesses
system.mem_ctrl.requestorReadAccesses::.cpu.data      1047198                       # Per-requestor read serviced memory accesses
system.mem_ctrl.requestorWriteAccesses::.writebacks       410360                       # Per-requestor write serviced memory accesses
system.mem_ctrl.requestorReadTotalLat::.cpu.inst   1505641750                       # Per-requestor read total memory access latency
system.mem_ctrl.requestorReadTotalLat::.cpu.data  31560281250                       # Per-requestor read total memory access latency
system.mem_ctrl.requestorWriteTotalLat::.writebacks 56213095603250                       # Per-requestor write total memory access latency
system.mem_ctrl.requestorReadAvgLat::.cpu.inst     25709.78                       # Per-requestor read average memory access latency
system.mem_ctrl.requestorReadAvgLat::.cpu.data     30137.84                       # Per-requestor read average memory access latency
system.mem_ctrl.requestorWriteAvgLat::.writebacks 136984831.86                       # Per-requestor write average memory access latency
system.mem_ctrl.dram.bytes_read::.cpu.inst      3748032                       # Number of bytes read from this memory
system.mem_ctrl.dram.bytes_read::.cpu.data     67020672                       # Number of bytes read from this memory
system.mem_ctrl.dram.bytes_read::total       70768704                       # Number of bytes read from this memory
system.mem_ctrl.dram.bytes_inst_read::.cpu.inst      3748032                       # Number of instructions bytes read from this memory
system.mem_ctrl.dram.bytes_inst_read::total      3748032                       # Number of instructions bytes read from this memory
system.mem_ctrl.dram.bytes_written::.writebacks     26263040                       # Number of bytes written to this memory
system.mem_ctrl.dram.bytes_written::total     26263040                       # Number of bytes written to this memory
system.mem_ctrl.dram.num_reads::.cpu.inst        58563                       # Number of read requests responded to by this memory
system.mem_ctrl.dram.num_reads::.cpu.data      1047198                       # Number of read requests responded to by this memory
system.mem_ctrl.dram.num_reads::total         1105761                       # Number of read requests responded to by this memory
system.mem_ctrl.dram.num_writes::.writebacks       410360                       # Number of write requests responded to by this memory
system.mem_ctrl.dram.num_writes::total         410360                       # Number of write requests responded to by this memory
system.mem_ctrl.dram.bw_read::.cpu.inst       1577389                       # Total read bandwidth from this memory (bytes/s)
system.mem_ctrl.dram.bw_read::.cpu.data      28206177                       # Total read bandwidth from this memory (bytes/s)
system.mem_ctrl.dram.bw_read::total          29783565                       # Total read bandwidth from this memory (bytes/s)
system.mem_ctrl.dram.bw_inst_read::.cpu.inst      1577389                       # Instruction read bandwidth from this memory (bytes/s)
system.mem_ctrl.dram.bw_inst_read::total      1577389                       # Instruction read bandwidth from this memory (bytes/s)
system.mem_ctrl.dram.bw_write::.writebacks     11053007                       # Write bandwidth from this memory (bytes/s)
system.mem_ctrl.dram.bw_write::total         11053007                       # Write bandwidth from this memory (bytes/s)
system.mem_ctrl.dram.bw_total::.writebacks     11053007                       # Total bandwidth to/from this memory (bytes/s)
system.mem_ctrl.dram.bw_total::.cpu.inst      1577389                       # Total bandwidth to/from this memory (bytes/s)
system.mem_ctrl.dram.bw_total::.cpu.data     28206177                       # Total bandwidth to/from this memory (bytes/s)
system.mem_ctrl.dram.bw_total::total         40836572                       # Total bandwidth to/from this memory (bytes/s)
system.mem_ctrl.dram.readBursts               1093492                       # Number of DRAM read bursts
system.mem_ctrl.dram.writeBursts               410331                       # Number of DRAM write bursts
system.mem_ctrl.dram.perBankRdBursts::0         63696                       # Per bank write bursts
system.mem_ctrl.dram.perBankRdBursts::1         84893                       # Per bank write bursts
system.mem_ctrl.dram.perBankRdBursts::2         55619                       # Per bank write bursts
system.mem_ctrl.dram.perBankRdBursts::3         77812                       # Per bank write bursts
system.mem_ctrl.dram.perBankRdBursts::4         60382                       # Per bank write bursts
system.mem_ctrl.dram.perBankRdBursts::5         75522                       # Per bank write bursts
system.mem_ctrl.dram.perBankRdBursts::6         51136                       # Per bank write bursts
system.mem_ctrl.dram.perBankRdBursts::7         65389                       # Per bank write bursts
system.mem_ctrl.dram.perBankRdBursts::8         52074                       # Per bank write bursts
system.mem_ctrl.dram.perBankRdBursts::9         60928                       # Per bank write bursts
system.mem_ctrl.dram.perBankRdBursts::10        49711                       # Per bank write bursts
system.mem_ctrl.dram.perBankRdBursts::11        82714                       # Per bank write bursts
system.mem_ctrl.dram.perBankRdBursts::12        70973                       # Per bank write bursts
system.mem_ctrl.dram.perBankRdBursts::13        82961                       # Per bank write bursts
system.mem_ctrl.dram.perBankRdBursts::14        65891                       # Per bank write bursts
system.mem_ctrl.dram.perBankRdBursts::15        93791                       # Per bank write bursts
system.mem_ctrl.dram.perBankWrBursts::0         16315                       # Per bank write bursts
system.mem_ctrl.dram.perBankWrBursts::1         37710                       # Per bank write bursts
system.mem_ctrl.dram.perBankWrBursts::2         26686                       # Per bank write bursts
system.mem_ctrl.dram.perBankWrBursts::3         37159                       # Per bank write bursts
system.mem_ctrl.dram.perBankWrBursts::4         34441                       # Per bank write bursts
system.mem_ctrl.dram.perBankWrBursts::5         50396                       # Per bank write bursts
system.mem_ctrl.dram.perBankWrBursts::6         31430                       # Per bank write bursts
system.mem_ctrl.dram.perBankWrBursts::7         36278                       # Per bank write bursts
system.mem_ctrl.dram.perBankWrBursts::8         31392                       # Per bank write bursts
system.mem_ctrl.dram.perBankWrBursts::9         32370                       # Per bank write bursts
system.mem_ctrl.dram.perBankWrBursts::10        12734                       # Per bank write bursts
system.mem_ctrl.dram.perBankWrBursts::11        10696                       # Per bank write bursts
system.mem_ctrl.dram.perBankWrBursts::12        13530                       # Per bank write bursts
system.mem_ctrl.dram.perBankWrBursts::13        12897                       # Per bank write bursts
system.mem_ctrl.dram.perBankWrBursts::14        12789                       # Per bank write bursts
system.mem_ctrl.dram.perBankWrBursts::15        13508                       # Per bank write bursts
system.mem_ctrl.dram.totQLat              12562948000                       # Total ticks spent queuing
system.mem_ctrl.dram.totBusLat             5467460000                       # Total ticks spent in databus transfers
system.mem_ctrl.dram.totMemAccLat         33065923000                       # Total ticks spent from burst creation until serviced by the DRAM
system.mem_ctrl.dram.avgQLat                 11488.83                       # Average queueing delay per DRAM burst
system.mem_ctrl.dram.avgBusLat                5000.00                       # Average bus latency per DRAM burst
system.mem_ctrl.dram.avgMemAccLat            30238.83                       # Average memory access latency per DRAM burst
system.mem_ctrl.dram.readRowHits               641947                       # Number of row buffer hits during reads
system.mem_ctrl.dram.writeRowHits              339608                       # Number of row buffer hits during writes
system.mem_ctrl.dram.readRowHitRate             58.71                       # Row buffer hit rate for reads
system.mem_ctrl.dram.writeRowHitRate            82.76                       # Row buffer hit rate for writes
system.mem_ctrl.dram.bytesPerActivate::samples       522267                       # Bytes accessed per row activation
system.mem_ctrl.dram.bytesPerActivate::mean   184.282384                       # Bytes accessed per row activation
system.mem_ctrl.dram.bytesPerActivate::gmean   122.472012                       # Bytes accessed per row activation
system.mem_ctrl.dram.bytesPerActivate::stdev   213.051303                       # Bytes accessed per row activation
system.mem_ctrl.dram.bytesPerActivate::0-127       270981     51.89%     51.89% # Bytes accessed per row activation
system.mem_ctrl.dram.bytesPerActivate::128-255       127355     24.39%     76.27% # Bytes accessed per row activation
system.mem_ctrl.dram.bytesPerActivate::256-383        53727     10.29%     86.56% # Bytes accessed per row activation
system.mem_ctrl.dram.bytesPerActivate::384-511        28431      5.44%     92.00% # Bytes accessed per row activation
system.mem_ctrl.dram.bytesPerActivate::512-639        10071      1.93%     93.93% # Bytes accessed per row activation
system.mem_ctrl.dram.bytesPerActivate::640-767         7268      1.39%     95.32% # Bytes accessed per row activation
system.mem_ctrl.dram.bytesPerActivate::768-895         6059      1.16%     96.48% # Bytes accessed per row activation
system.mem_ctrl.dram.bytesPerActivate::896-1023         5446      1.04%     97.52% # Bytes accessed per row activation
system.mem_ctrl.dram.bytesPerActivate::1024-1151        12929      2.48%    100.00% # Bytes accessed per row activation
system.mem_ctrl.dram.bytesPerActivate::total       522267                       # Bytes accessed per row activation
system.mem_ctrl.dram.bytesRead               69983488                       # Total number of bytes read from DRAM
system.mem_ctrl.dram.bytesWritten            26261184                       # Total number of bytes written to DRAM
system.mem_ctrl.dram.avgRdBW                29.453101                       # Average DRAM read bandwidth in MiBytes/s
system.mem_ctrl.dram.avgWrBW                11.052226                       # Average DRAM write bandwidth in MiBytes/s
system.mem_ctrl.dram.peakBW                  12800.00                       # Theoretical peak bandwidth in MiByte/s
system.mem_ctrl.dram.busUtil                     0.32                       # Data bus utilization in percentage
system.mem_ctrl.dram.busUtilRead                 0.23                       # Data bus utilization in percentage for reads
system.mem_ctrl.dram.busUtilWrite                0.09                       # Data bus utilization in percentage for writes
system.mem_ctrl.dram.pageHitRate                65.27                       # Row buffer hit rate, read and write combined
system.mem_ctrl.dram.power_state.pwrStateResidencyTicks::UNDEFINED 2376099133000                       # Cumulative time (in ticks) in various power states
system.mem_ctrl.dram.rank0.actEnergy       1678007100                       # Energy for activate commands per rank (pJ)
system.mem_ctrl.dram.rank0.preEnergy        891878130                       # Energy for precharge commands per rank (pJ)
system.mem_ctrl.dram.rank0.readEnergy      3815965860                       # Energy for read commands per rank (pJ)
system.mem_ctrl.dram.rank0.writeEnergy     1411566300                       # Energy for write commands per rank (pJ)
system.mem_ctrl.dram.rank0.refreshEnergy 187567230240.000031                       # Energy for refresh commands per rank (pJ)
system.mem_ctrl.dram.rank0.actBackEnergy 272699035770                       # Energy for active background per rank (pJ)
system.mem_ctrl.dram.rank0.preBackEnergy 682780774080                       # Energy for precharge background per rank (pJ)
system.mem_ctrl.dram.rank0.actPowerDownEnergy            0                       # Energy for active power-down per rank (pJ)
system.mem_ctrl.dram.rank0.prePowerDownEnergy            0                       # Energy for precharge power-down per rank (pJ)
system.mem_ctrl.dram.rank0.selfRefreshEnergy            0                       # Energy for self refresh per rank (pJ)
system.mem_ctrl.dram.rank0.totalEnergy   1150844457480                       # Total energy per rank (pJ)
system.mem_ctrl.dram.rank0.averagePower    484.341937                       # Core power per rank (mW)
system.mem_ctrl.dram.rank0.totalIdleTime            0                       # Total Idle time Per DRAM Rank
system.mem_ctrl.dram.rank0.pwrStateTime::IDLE 1772434259750                       # Time in different power states
system.mem_ctrl.dram.rank0.pwrStateTime::REF  79343160000                       # Time in different power states
system.mem_ctrl.dram.rank0.pwrStateTime::SREF            0                       # Time in different power states
system.mem_ctrl.dram.rank0.pwrStateTime::PRE_PDN            0                       # Time in different power states
system.mem_ctrl.dram.rank0.pwrStateTime::ACT 524321713250                       # Time in different power states
system.mem_ctrl.dram.rank0.pwrStateTime::ACT_PDN            0                       # Time in different power states
system.mem_ctrl.dram.rank1.actEnergy       2050986420                       # Energy for activate commands per rank (pJ)
system.mem_ctrl.dram.rank1.preEnergy       1090125135                       # Energy for precharge commands per rank (pJ)
system.mem_ctrl.dram.rank1.readEnergy      3991567020                       # Energy for read commands per rank (pJ)
system.mem_ctrl.dram.rank1.writeEnergy      730361520                       # Energy for write commands per rank (pJ)
system.mem_ctrl.dram.rank1.refreshEnergy 187567230240.000031                       # Energy for refresh commands per rank (pJ)
system.mem_ctrl.dram.rank1.actBackEnergy 232976272710                       # Energy for active background per rank (pJ)
system.mem_ctrl.dram.rank1.preBackEnergy 716231521920                       # Energy for precharge background per rank (pJ)
system.mem_ctrl.dram.rank1.actPowerDownEnergy            0                       # Energy for active power-down per rank (pJ)
system.mem_ctrl.dram.rank1.prePowerDownEnergy            0                       # Energy for precharge power-down per rank (pJ)
system.mem_ctrl.dram.rank1.selfRefreshEnergy            0                       # Energy for self refresh per rank (pJ)
system.mem_ctrl.dram.rank1.totalEnergy   1144638064965                       # Total energy per rank (pJ)
system.mem_ctrl.dram.rank1.averagePower    481.729928                       # Core power per rank (mW)
system.mem_ctrl.dram.rank1.totalIdleTime            0                       # Total Idle time Per DRAM Rank
system.mem_ctrl.dram.rank1.pwrStateTime::IDLE 1859807381000                       # Time in different power states
system.mem_ctrl.dram.rank1.pwrStateTime::REF  79343160000                       # Time in different power states
system.mem_ctrl.dram.rank1.pwrStateTime::SREF            0                       # Time in different power states
system.mem_ctrl.dram.rank1.pwrStateTime::PRE_PDN            0                       # Time in different power states
system.mem_ctrl.dram.rank1.pwrStateTime::ACT 436948592000                       # Time in different power states
system.mem_ctrl.dram.rank1.pwrStateTime::ACT_PDN            0                       # Time in different power states
system.mem_ctrl.power_state.pwrStateResidencyTicks::UNDEFINED 2376099133000                       # Cumulative time (in ticks) in various power states
system.membus.trans_dist::ReadResp             925342                       # Transaction distribution
system.membus.trans_dist::WritebackDirty       410360                       # Transaction distribution
system.membus.trans_dist::CleanEvict           692974                       # Transaction distribution
system.membus.trans_dist::ReadExReq            180419                       # Transaction distribution
system.membus.trans_dist::ReadExResp           180419                       # Transaction distribution
system.membus.trans_dist::ReadSharedReq        925342                       # Transaction distribution
system.membus.pkt_count_system.l2cache.mem_side_port::system.mem_ctrl.port      3314856                       # Packet count per connected requestor and responder (bytes)
system.membus.pkt_count_system.l2cache.mem_side_port::total      3314856                       # Packet count per connected requestor and responder (bytes)
system.membus.pkt_count::total                3314856                       # Packet count per connected requestor and responder (bytes)
system.membus.pkt_size_system.l2cache.mem_side_port::system.mem_ctrl.port     97031744                       # Cumulative packet size per connected requestor and responder (bytes)
system.membus.pkt_size_system.l2cache.mem_side_port::total     97031744                       # Cumulative packet size per connected requestor and responder (bytes)
system.membus.pkt_size::total                97031744                       # Cumulative packet size per connected requestor and responder (bytes)
system.membus.snoops                                0                       # Total snoops (count)
system.membus.snoopTraffic                          0                       # Total snoop traffic (bytes)
system.membus.snoop_fanout::samples           1105761                       # Request fanout histogram
system.membus.snoop_fanout::mean                    0                       # Request fanout histogram
system.membus.snoop_fanout::stdev                   0                       # Request fanout histogram
system.membus.snoop_fanout::underflows              0      0.00%      0.00% # Request fanout histogram
system.membus.snoop_fanout::0                 1105761    100.00%    100.00% # Request fanout histogram
system.membus.snoop_fanout::1                       0      0.00%    100.00% # Request fanout histogram
system.membus.snoop_fanout::overflows               0      0.00%    100.00% # Request fanout histogram
system.membus.snoop_fanout::min_value               0                       # Request fanout histogram
system.membus.snoop_fanout::max_value               0                       # Request fanout histogram
system.membus.snoop_fanout::total             1105761                       # Request fanout histogram
system.membus.power_state.pwrStateResidencyTicks::UNDEFINED 2376099133000                       # Cumulative time (in ticks) in various power states
system.membus.reqLayer2.occupancy          3850535000                       # Layer occupancy (ticks)
system.membus.reqLayer2.utilization               0.2                       # Layer utilization (%)
system.membus.respLayer0.occupancy         5929367000                       # Layer occupancy (ticks)
system.membus.respLayer0.utilization              0.2                       # Layer utilization (%)

---------- End Simulation Statistics   ----------
