
---------- Begin Simulation Statistics ----------
final_tick                                16049503000                       # Number of ticks from beginning of simulation (restored from checkpoints and never reset)
host_inst_rate                                  56509                       # Simulator instruction rate (inst/s)
host_mem_usage                                 642272                       # Number of bytes of host memory used
host_op_rate                                   100639                       # Simulator op (including micro ops) rate (op/s)
host_seconds                                   113.94                       # Real time elapsed on the host
host_tick_rate                              140853200                       # Simulator tick rate (ticks/s)
sim_freq                                 1000000000000                       # Frequency of simulated ticks
sim_insts                                     6438899                       # Number of instructions simulated
sim_ops                                      11467340                       # Number of ops (including micro ops) simulated
sim_seconds                                  0.016050                       # Number of seconds simulated
sim_ticks                                 16049503000                       # Number of ticks simulated
system.cpu.cc_regfile_reads                   7124420                       # number of cc regfile reads
system.cpu.cc_regfile_writes                  4091060                       # number of cc regfile writes
system.cpu.committedInsts                     6438899                       # Number of Instructions Simulated
system.cpu.committedOps                      11467340                       # Number of Ops (including micro ops) Simulated
system.cpu.cpi                               2.492585                       # CPI: Cycles Per Instruction
system.cpu.cpi_total                         2.492585                       # CPI: Total CPI of All Threads
system.cpu.fp_regfile_reads                      1752                       # number of floating regfile reads
system.cpu.fp_regfile_writes                      807                       # number of floating regfile writes
system.cpu.idleCycles                           27212                       # Total number of cycles that the CPU has spent unscheduled due to idling
system.cpu.iew.branchMispredicts                  983                       # Number of branch mispredicts detected at execute
system.cpu.iew.exec_branches                  1285071                       # Number of branches executed
system.cpu.iew.exec_nop                             0                       # number of nop insts executed
system.cpu.iew.exec_rate                     0.733858                       # Inst execution rate
system.cpu.iew.exec_refs                      2256587                       # number of memory reference insts executed
system.cpu.iew.exec_stores                    1040465                       # Number of stores executed
system.cpu.iew.exec_swp                             0                       # number of swp insts executed
system.cpu.iew.iewBlockCycles                 6454700                       # Number of cycles IEW is blocking
system.cpu.iew.iewDispLoadInsts               1216858                       # Number of dispatched load instructions
system.cpu.iew.iewDispNonSpecInsts                  3                       # Number of dispatched non-speculative instructions
system.cpu.iew.iewDispSquashedInsts                37                       # Number of squashed instructions skipped by dispatch
system.cpu.iew.iewDispStoreInsts              1040950                       # Number of dispatched store instructions
system.cpu.iew.iewDispatchedInsts            11784560                       # Number of instructions dispatched to IQ
system.cpu.iew.iewExecLoadInsts               1216122                       # Number of load instructions executed
system.cpu.iew.iewExecSquashedInsts              1527                       # Number of squashed instructions skipped in execute
system.cpu.iew.iewExecutedInsts              11778056                       # Number of executed instructions
system.cpu.iew.iewIQFullEvents                     14                       # Number of times the IQ has become full, causing a stall
system.cpu.iew.iewIdleCycles                        0                       # Number of cycles IEW is idle
system.cpu.iew.iewLSQFullEvents                  4150                       # Number of times the LSQ has become full, causing a stall
system.cpu.iew.iewSquashCycles                   2432                       # Number of cycles IEW is squashing
system.cpu.iew.iewUnblockCycles                 35388                       # Number of cycles IEW is unblocking
system.cpu.iew.memOrderViolationEvents             17                       # Number of memory order violations
system.cpu.iew.predictedNotTakenIncorrect          886                       # Number of branches that were predicted not taken incorrectly
system.cpu.iew.predictedTakenIncorrect             97                       # Number of branches that were predicted taken incorrectly
system.cpu.iew.wb_consumers                  13270583                       # num instructions consuming a value
system.cpu.iew.wb_count                      11775414                       # cumulative count of insts written-back
system.cpu.iew.wb_fanout                     0.602179                       # average fanout of values written-back
system.cpu.iew.wb_producers                   7991271                       # num instructions producing a value
system.cpu.iew.wb_rate                       0.733693                       # insts written-back per cycle
system.cpu.iew.wb_sent                       11777423                       # cumulative count of insts sent to commit
system.cpu.int_regfile_reads                 18001238                       # number of integer regfile reads
system.cpu.int_regfile_writes                 9383142                       # number of integer regfile writes
system.cpu.ipc                               0.401190                       # IPC: Instructions Per Cycle
system.cpu.ipc_total                         0.401190                       # IPC: Total IPC of All Threads
system.cpu.iq.FU_type_0::No_OpClass             35087      0.30%      0.30% # Type of FU issued
system.cpu.iq.FU_type_0::IntAlu               9486772     80.54%     80.83% # Type of FU issued
system.cpu.iq.FU_type_0::IntMult                    6      0.00%     80.83% # Type of FU issued
system.cpu.iq.FU_type_0::IntDiv                    28      0.00%     80.83% # Type of FU issued
system.cpu.iq.FU_type_0::FloatAdd                 136      0.00%     80.84% # Type of FU issued
system.cpu.iq.FU_type_0::FloatCmp                   0      0.00%     80.84% # Type of FU issued
system.cpu.iq.FU_type_0::FloatCvt                   0      0.00%     80.84% # Type of FU issued
system.cpu.iq.FU_type_0::FloatMult                  0      0.00%     80.84% # Type of FU issued
system.cpu.iq.FU_type_0::FloatMultAcc               0      0.00%     80.84% # Type of FU issued
system.cpu.iq.FU_type_0::FloatDiv                   0      0.00%     80.84% # Type of FU issued
system.cpu.iq.FU_type_0::FloatMisc                  0      0.00%     80.84% # Type of FU issued
system.cpu.iq.FU_type_0::FloatSqrt                  0      0.00%     80.84% # Type of FU issued
system.cpu.iq.FU_type_0::SimdAdd                    0      0.00%     80.84% # Type of FU issued
system.cpu.iq.FU_type_0::SimdAddAcc                 0      0.00%     80.84% # Type of FU issued
system.cpu.iq.FU_type_0::SimdAlu                  162      0.00%     80.84% # Type of FU issued
system.cpu.iq.FU_type_0::SimdCmp                   12      0.00%     80.84% # Type of FU issued
system.cpu.iq.FU_type_0::SimdCvt                   84      0.00%     80.84% # Type of FU issued
system.cpu.iq.FU_type_0::SimdMisc                 252      0.00%     80.84% # Type of FU issued
system.cpu.iq.FU_type_0::SimdMult                   0      0.00%     80.84% # Type of FU issued
system.cpu.iq.FU_type_0::SimdMultAcc                0      0.00%     80.84% # Type of FU issued
system.cpu.iq.FU_type_0::SimdShift                  0      0.00%     80.84% # Type of FU issued
system.cpu.iq.FU_type_0::SimdShiftAcc               0      0.00%     80.84% # Type of FU issued
system.cpu.iq.FU_type_0::SimdDiv                    0      0.00%     80.84% # Type of FU issued
system.cpu.iq.FU_type_0::SimdSqrt                   0      0.00%     80.84% # Type of FU issued
system.cpu.iq.FU_type_0::SimdFloatAdd               0      0.00%     80.84% # Type of FU issued
system.cpu.iq.FU_type_0::SimdFloatAlu               0      0.00%     80.84% # Type of FU issued
system.cpu.iq.FU_type_0::SimdFloatCmp               0      0.00%     80.84% # Type of FU issued
system.cpu.iq.FU_type_0::SimdFloatCvt               0      0.00%     80.84% # Type of FU issued
system.cpu.iq.FU_type_0::SimdFloatDiv               0      0.00%     80.84% # Type of FU issued
system.cpu.iq.FU_type_0::SimdFloatMisc              0      0.00%     80.84% # Type of FU issued
system.cpu.iq.FU_type_0::SimdFloatMult              0      0.00%     80.84% # Type of FU issued
system.cpu.iq.FU_type_0::SimdFloatMultAcc            0      0.00%     80.84% # Type of FU issued
system.cpu.iq.FU_type_0::SimdFloatSqrt              0      0.00%     80.84% # Type of FU issued
system.cpu.iq.FU_type_0::SimdReduceAdd              0      0.00%     80.84% # Type of FU issued
system.cpu.iq.FU_type_0::SimdReduceAlu              0      0.00%     80.84% # Type of FU issued
system.cpu.iq.FU_type_0::SimdReduceCmp              0      0.00%     80.84% # Type of FU issued
system.cpu.iq.FU_type_0::SimdFloatReduceAdd            0      0.00%     80.84% # Type of FU issued
system.cpu.iq.FU_type_0::SimdFloatReduceCmp            0      0.00%     80.84% # Type of FU issued
system.cpu.iq.FU_type_0::SimdAes                    0      0.00%     80.84% # Type of FU issued
system.cpu.iq.FU_type_0::SimdAesMix                 0      0.00%     80.84% # Type of FU issued
system.cpu.iq.FU_type_0::SimdSha1Hash               0      0.00%     80.84% # Type of FU issued
system.cpu.iq.FU_type_0::SimdSha1Hash2              0      0.00%     80.84% # Type of FU issued
system.cpu.iq.FU_type_0::SimdSha256Hash             0      0.00%     80.84% # Type of FU issued
system.cpu.iq.FU_type_0::SimdSha256Hash2            0      0.00%     80.84% # Type of FU issued
system.cpu.iq.FU_type_0::SimdShaSigma2              0      0.00%     80.84% # Type of FU issued
system.cpu.iq.FU_type_0::SimdShaSigma3              0      0.00%     80.84% # Type of FU issued
system.cpu.iq.FU_type_0::SimdPredAlu                0      0.00%     80.84% # Type of FU issued
system.cpu.iq.FU_type_0::MemRead              1216340     10.33%     91.17% # Type of FU issued
system.cpu.iq.FU_type_0::MemWrite             1040055      8.83%     99.99% # Type of FU issued
system.cpu.iq.FU_type_0::FloatMemRead             104      0.00%    100.00% # Type of FU issued
system.cpu.iq.FU_type_0::FloatMemWrite            545      0.00%    100.00% # Type of FU issued
system.cpu.iq.FU_type_0::IprAccess                  0      0.00%    100.00% # Type of FU issued
system.cpu.iq.FU_type_0::InstPrefetch               0      0.00%    100.00% # Type of FU issued
system.cpu.iq.FU_type_0::total               11779583                       # Type of FU issued
system.cpu.iq.fp_alu_accesses                    1494                       # Number of floating point alu accesses
system.cpu.iq.fp_inst_queue_reads                2952                       # Number of floating instruction queue reads
system.cpu.iq.fp_inst_queue_wakeup_accesses         1416                       # Number of floating instruction queue wakeup accesses
system.cpu.iq.fp_inst_queue_writes               1737                       # Number of floating instruction queue writes
system.cpu.iq.fu_busy_cnt                      234610                       # FU busy when requested
system.cpu.iq.fu_busy_rate                   0.019917                       # FU busy rate (busy events/executed inst)
system.cpu.iq.fu_full::No_OpClass                   0      0.00%      0.00% # attempts to use FU when none available
system.cpu.iq.fu_full::IntAlu                  228376     97.34%     97.34% # attempts to use FU when none available
system.cpu.iq.fu_full::IntMult                      0      0.00%     97.34% # attempts to use FU when none available
system.cpu.iq.fu_full::IntDiv                       0      0.00%     97.34% # attempts to use FU when none available
system.cpu.iq.fu_full::FloatAdd                     0      0.00%     97.34% # attempts to use FU when none available
system.cpu.iq.fu_full::FloatCmp                     0      0.00%     97.34% # attempts to use FU when none available
system.cpu.iq.fu_full::FloatCvt                     0      0.00%     97.34% # attempts to use FU when none available
system.cpu.iq.fu_full::FloatMult                    0      0.00%     97.34% # attempts to use FU when none available
system.cpu.iq.fu_full::FloatMultAcc                 0      0.00%     97.34% # attempts to use FU when none available
system.cpu.iq.fu_full::FloatDiv                     0      0.00%     97.34% # attempts to use FU when none available
system.cpu.iq.fu_full::FloatMisc                    0      0.00%     97.34% # attempts to use FU when none available
system.cpu.iq.fu_full::FloatSqrt                    0      0.00%     97.34% # attempts to use FU when none available
system.cpu.iq.fu_full::SimdAdd                      0      0.00%     97.34% # attempts to use FU when none available
system.cpu.iq.fu_full::SimdAddAcc                   0      0.00%     97.34% # attempts to use FU when none available
system.cpu.iq.fu_full::SimdAlu                     10      0.00%     97.35% # attempts to use FU when none available
system.cpu.iq.fu_full::SimdCmp                      0      0.00%     97.35% # attempts to use FU when none available
system.cpu.iq.fu_full::SimdCvt                      5      0.00%     97.35% # attempts to use FU when none available
system.cpu.iq.fu_full::SimdMisc                     5      0.00%     97.35% # attempts to use FU when none available
system.cpu.iq.fu_full::SimdMult                     0      0.00%     97.35% # attempts to use FU when none available
system.cpu.iq.fu_full::SimdMultAcc                  0      0.00%     97.35% # attempts to use FU when none available
system.cpu.iq.fu_full::SimdShift                    0      0.00%     97.35% # attempts to use FU when none available
system.cpu.iq.fu_full::SimdShiftAcc                 0      0.00%     97.35% # attempts to use FU when none available
system.cpu.iq.fu_full::SimdDiv                      0      0.00%     97.35% # attempts to use FU when none available
system.cpu.iq.fu_full::SimdSqrt                     0      0.00%     97.35% # attempts to use FU when none available
system.cpu.iq.fu_full::SimdFloatAdd                 0      0.00%     97.35% # attempts to use FU when none available
system.cpu.iq.fu_full::SimdFloatAlu                 0      0.00%     97.35% # attempts to use FU when none available
system.cpu.iq.fu_full::SimdFloatCmp                 0      0.00%     97.35% # attempts to use FU when none available
system.cpu.iq.fu_full::SimdFloatCvt                 0      0.00%     97.35% # attempts to use FU when none available
system.cpu.iq.fu_full::SimdFloatDiv                 0      0.00%     97.35% # attempts to use FU when none available
system.cpu.iq.fu_full::SimdFloatMisc                0      0.00%     97.35% # attempts to use FU when none available
system.cpu.iq.fu_full::SimdFloatMult                0      0.00%     97.35% # attempts to use FU when none available
system.cpu.iq.fu_full::SimdFloatMultAcc             0      0.00%     97.35% # attempts to use FU when none available
system.cpu.iq.fu_full::SimdFloatSqrt                0      0.00%     97.35% # attempts to use FU when none available
system.cpu.iq.fu_full::SimdReduceAdd                0      0.00%     97.35% # attempts to use FU when none available
system.cpu.iq.fu_full::SimdReduceAlu                0      0.00%     97.35% # attempts to use FU when none available
system.cpu.iq.fu_full::SimdReduceCmp                0      0.00%     97.35% # attempts to use FU when none available
system.cpu.iq.fu_full::SimdFloatReduceAdd            0      0.00%     97.35% # attempts to use FU when none available
system.cpu.iq.fu_full::SimdFloatReduceCmp            0      0.00%     97.35% # attempts to use FU when none available
system.cpu.iq.fu_full::SimdAes                      0      0.00%     97.35% # attempts to use FU when none available
system.cpu.iq.fu_full::SimdAesMix                   0      0.00%     97.35% # attempts to use FU when none available
system.cpu.iq.fu_full::SimdSha1Hash                 0      0.00%     97.35% # attempts to use FU when none available
system.cpu.iq.fu_full::SimdSha1Hash2                0      0.00%     97.35% # attempts to use FU when none available
system.cpu.iq.fu_full::SimdSha256Hash               0      0.00%     97.35% # attempts to use FU when none available
system.cpu.iq.fu_full::SimdSha256Hash2              0      0.00%     97.35% # attempts to use FU when none available
system.cpu.iq.fu_full::SimdShaSigma2                0      0.00%     97.35% # attempts to use FU when none available
system.cpu.iq.fu_full::SimdShaSigma3                0      0.00%     97.35% # attempts to use FU when none available
system.cpu.iq.fu_full::SimdPredAlu                  0      0.00%     97.35% # attempts to use FU when none available
system.cpu.iq.fu_full::MemRead                   3107      1.32%     98.68% # attempts to use FU when none available
system.cpu.iq.fu_full::MemWrite                  3088      1.32%     99.99% # attempts to use FU when none available
system.cpu.iq.fu_full::FloatMemRead                 5      0.00%     99.99% # attempts to use FU when none available
system.cpu.iq.fu_full::FloatMemWrite               14      0.01%    100.00% # attempts to use FU when none available
system.cpu.iq.fu_full::IprAccess                    0      0.00%    100.00% # attempts to use FU when none available
system.cpu.iq.fu_full::InstPrefetch                 0      0.00%    100.00% # attempts to use FU when none available
system.cpu.iq.int_alu_accesses               11977612                       # Number of integer alu accesses
system.cpu.iq.int_inst_queue_reads           39813220                       # Number of integer instruction queue reads
system.cpu.iq.int_inst_queue_wakeup_accesses     11773998                       # Number of integer instruction queue wakeup accesses
system.cpu.iq.int_inst_queue_writes          12100054                       # Number of integer instruction queue writes
system.cpu.iq.iqInstsAdded                   11784553                       # Number of instructions added to the IQ (excludes non-spec)
system.cpu.iq.iqInstsIssued                  11779583                       # Number of instructions issued
system.cpu.iq.iqNonSpecInstsAdded                   7                       # Number of non-speculative instructions added to the IQ
system.cpu.iq.iqSquashedInstsExamined          317214                       # Number of squashed instructions iterated over during squash; mainly for profiling
system.cpu.iq.iqSquashedInstsIssued               104                       # Number of squashed instructions issued
system.cpu.iq.iqSquashedNonSpecRemoved              7                       # Number of squashed non-spec instructions that were removed
system.cpu.iq.iqSquashedOperandsExamined        30511                       # Number of squashed operands that are examined and possibly removed from graph
system.cpu.iq.issued_per_cycle::samples      16022292                       # Number of insts issued each cycle
system.cpu.iq.issued_per_cycle::mean         0.735200                       # Number of insts issued each cycle
system.cpu.iq.issued_per_cycle::stdev        1.769544                       # Number of insts issued each cycle
system.cpu.iq.issued_per_cycle::underflows            0      0.00%      0.00% # Number of insts issued each cycle
system.cpu.iq.issued_per_cycle::0            13019906     81.26%     81.26% # Number of insts issued each cycle
system.cpu.iq.issued_per_cycle::1              437061      2.73%     83.99% # Number of insts issued each cycle
system.cpu.iq.issued_per_cycle::2              370003      2.31%     86.30% # Number of insts issued each cycle
system.cpu.iq.issued_per_cycle::3              702169      4.38%     90.68% # Number of insts issued each cycle
system.cpu.iq.issued_per_cycle::4              349793      2.18%     92.86% # Number of insts issued each cycle
system.cpu.iq.issued_per_cycle::5              245179      1.53%     94.39% # Number of insts issued each cycle
system.cpu.iq.issued_per_cycle::6              550995      3.44%     97.83% # Number of insts issued each cycle
system.cpu.iq.issued_per_cycle::7              212516      1.33%     99.16% # Number of insts issued each cycle
system.cpu.iq.issued_per_cycle::8              134670      0.84%    100.00% # Number of insts issued each cycle
system.cpu.iq.issued_per_cycle::overflows            0      0.00%    100.00% # Number of insts issued each cycle
system.cpu.iq.issued_per_cycle::min_value            0                       # Number of insts issued each cycle
system.cpu.iq.issued_per_cycle::max_value            8                       # Number of insts issued each cycle
system.cpu.iq.issued_per_cycle::total        16022292                       # Number of insts issued each cycle
system.cpu.iq.rate                           0.733953                       # Inst issue rate
system.cpu.iq.vec_alu_accesses                      0                       # Number of vector alu accesses
system.cpu.iq.vec_inst_queue_reads                  0                       # Number of vector instruction queue reads
system.cpu.iq.vec_inst_queue_wakeup_accesses            0                       # Number of vector instruction queue wakeup accesses
system.cpu.iq.vec_inst_queue_writes                 0                       # Number of vector instruction queue writes
system.cpu.memDep0.conflictingLoads              7856                       # Number of conflicting loads.
system.cpu.memDep0.conflictingStores               28                       # Number of conflicting stores.
system.cpu.memDep0.insertedLoads              1216858                       # Number of loads inserted to the mem dependence unit.
system.cpu.memDep0.insertedStores             1040950                       # Number of stores inserted to the mem dependence unit.
system.cpu.misc_regfile_reads                 4996944                       # number of misc regfile reads
system.cpu.numCycles                         16049504                       # number of cpu cycles simulated
system.cpu.numWorkItemsCompleted                    0                       # number of work items this cpu completed
system.cpu.numWorkItemsStarted                      0                       # number of work items this cpu started
system.cpu.timesIdled                             406                       # Number of times that the entire CPU went into an idle state and unscheduled itself
system.cpu.workload.numSyscalls                    56                       # Number of system calls
system.l2bus.snoop_filter.hit_multi_requests            0                       # Number of requests hitting in the snoop filter with multiple (>1) holders of the requested data.
system.l2bus.snoop_filter.hit_multi_snoops            0                       # Number of snoops hitting in the snoop filter with multiple (>1) holders of the requested data.
system.l2bus.snoop_filter.hit_single_requests       196552                       # Number of requests hitting in the snoop filter with a single holder of the requested data.
system.l2bus.snoop_filter.hit_single_snoops       197048                       # Number of snoops hitting in the snoop filter with a single holder of the requested data.
system.l2bus.snoop_filter.tot_requests         394367                       # Total number of requests made to the snoop filter.
system.l2bus.snoop_filter.tot_snoops           197048                       # Total number of snoops made to the snoop filter.
system.membus.snoop_filter.hit_multi_requests            0                       # Number of requests hitting in the snoop filter with multiple (>1) holders of the requested data.
system.membus.snoop_filter.hit_multi_snoops            0                       # Number of snoops hitting in the snoop filter with multiple (>1) holders of the requested data.
system.membus.snoop_filter.hit_single_requests       196516                       # Number of requests hitting in the snoop filter with a single holder of the requested data.
system.membus.snoop_filter.hit_single_snoops            0                       # Number of snoops hitting in the snoop filter with a single holder of the requested data.
system.membus.snoop_filter.tot_requests        394300                       # Total number of requests made to the snoop filter.
system.membus.snoop_filter.tot_snoops               0                       # Total number of snoops made to the snoop filter.
system.clk_domain.clock                          1000                       # Clock period in ticks
system.clk_domain.voltage_domain.voltage            1                       # Voltage in Volts
system.cpu.branchPred.lookups                 1291099                       # Number of BP lookups
system.cpu.branchPred.condPredicted           1083094                       # Number of conditional branches predicted
system.cpu.branchPred.condIncorrect               999                       # Number of conditional branches incorrect
system.cpu.branchPred.BTBLookups               645123                       # Number of BTB lookups
system.cpu.branchPred.BTBHits                  644308                       # Number of BTB hits
system.cpu.branchPred.BTBHitPct             99.873668                       # BTB Hit Percentage
system.cpu.branchPred.RASUsed                   69523                       # Number of times the RAS was used to get a target.
system.cpu.branchPred.RASIncorrect                  0                       # Number of incorrect RAS predictions.
system.cpu.branchPred.indirectLookups             376                       # Number of indirect predictor lookups.
system.cpu.branchPred.indirectHits                 49                       # Number of indirect target hits.
system.cpu.branchPred.indirectMisses              327                       # Number of indirect misses.
system.cpu.branchPred.indirectMispredicted           89                       # Number of mispredicted indirect branches.
system.cpu.commit.commitSquashedInsts          316945                       # The number of squashed insts skipped by commit
system.cpu.commit.branchMispredicts               824                       # The number of times a branch was mispredicted
system.cpu.commit.numCommittedDist::samples     15981612                       # Number of insts commited each cycle
system.cpu.commit.numCommittedDist::mean     0.717533                       # Number of insts commited each cycle
system.cpu.commit.numCommittedDist::stdev     1.919040                       # Number of insts commited each cycle
system.cpu.commit.numCommittedDist::underflows            0      0.00%      0.00% # Number of insts commited each cycle
system.cpu.commit.numCommittedDist::0        13128379     82.15%     82.15% # Number of insts commited each cycle
system.cpu.commit.numCommittedDist::1          780892      4.89%     87.03% # Number of insts commited each cycle
system.cpu.commit.numCommittedDist::2          263435      1.65%     88.68% # Number of insts commited each cycle
system.cpu.commit.numCommittedDist::3          493289      3.09%     91.77% # Number of insts commited each cycle
system.cpu.commit.numCommittedDist::4          264532      1.66%     93.42% # Number of insts commited each cycle
system.cpu.commit.numCommittedDist::5          129948      0.81%     94.24% # Number of insts commited each cycle
system.cpu.commit.numCommittedDist::6          167242      1.05%     95.28% # Number of insts commited each cycle
system.cpu.commit.numCommittedDist::7           62769      0.39%     95.68% # Number of insts commited each cycle
system.cpu.commit.numCommittedDist::8          691126      4.32%    100.00% # Number of insts commited each cycle
system.cpu.commit.numCommittedDist::overflows            0      0.00%    100.00% # Number of insts commited each cycle
system.cpu.commit.numCommittedDist::min_value            0                       # Number of insts commited each cycle
system.cpu.commit.numCommittedDist::max_value            8                       # Number of insts commited each cycle
system.cpu.commit.numCommittedDist::total     15981612                       # Number of insts commited each cycle
system.cpu.commit.instsCommitted              6438899                       # Number of instructions committed
system.cpu.commit.opsCommitted               11467340                       # Number of ops (including micro ops) committed
system.cpu.commit.memRefs                     2201215                       # Number of memory references committed
system.cpu.commit.loads                       1182733                       # Number of loads committed
system.cpu.commit.amos                              0                       # Number of atomic instructions committed
system.cpu.commit.membars                           0                       # Number of memory barriers committed
system.cpu.commit.branches                    1248759                       # Number of branches committed
system.cpu.commit.vector                            0                       # Number of committed Vector instructions.
system.cpu.commit.floating                       1267                       # Number of committed floating point instructions.
system.cpu.commit.integer                    11400801                       # Number of committed integer instructions.
system.cpu.commit.functionCalls                 65869                       # Number of function calls committed.
system.cpu.commit.committedInstType_0::No_OpClass        33194      0.29%      0.29% # Class of committed instruction
system.cpu.commit.committedInstType_0::IntAlu      9232341     80.51%     80.80% # Class of committed instruction
system.cpu.commit.committedInstType_0::IntMult            5      0.00%     80.80% # Class of committed instruction
system.cpu.commit.committedInstType_0::IntDiv           21      0.00%     80.80% # Class of committed instruction
system.cpu.commit.committedInstType_0::FloatAdd          135      0.00%     80.80% # Class of committed instruction
system.cpu.commit.committedInstType_0::FloatCmp            0      0.00%     80.80% # Class of committed instruction
system.cpu.commit.committedInstType_0::FloatCvt            0      0.00%     80.80% # Class of committed instruction
system.cpu.commit.committedInstType_0::FloatMult            0      0.00%     80.80% # Class of committed instruction
system.cpu.commit.committedInstType_0::FloatMultAcc            0      0.00%     80.80% # Class of committed instruction
system.cpu.commit.committedInstType_0::FloatDiv            0      0.00%     80.80% # Class of committed instruction
system.cpu.commit.committedInstType_0::FloatMisc            0      0.00%     80.80% # Class of committed instruction
system.cpu.commit.committedInstType_0::FloatSqrt            0      0.00%     80.80% # Class of committed instruction
system.cpu.commit.committedInstType_0::SimdAdd            0      0.00%     80.80% # Class of committed instruction
system.cpu.commit.committedInstType_0::SimdAddAcc            0      0.00%     80.80% # Class of committed instruction
system.cpu.commit.committedInstType_0::SimdAlu          100      0.00%     80.80% # Class of committed instruction
system.cpu.commit.committedInstType_0::SimdCmp           12      0.00%     80.80% # Class of committed instruction
system.cpu.commit.committedInstType_0::SimdCvt           74      0.00%     80.80% # Class of committed instruction
system.cpu.commit.committedInstType_0::SimdMisc          243      0.00%     80.80% # Class of committed instruction
system.cpu.commit.committedInstType_0::SimdMult            0      0.00%     80.80% # Class of committed instruction
system.cpu.commit.committedInstType_0::SimdMultAcc            0      0.00%     80.80% # Class of committed instruction
system.cpu.commit.committedInstType_0::SimdShift            0      0.00%     80.80% # Class of committed instruction
system.cpu.commit.committedInstType_0::SimdShiftAcc            0      0.00%     80.80% # Class of committed instruction
system.cpu.commit.committedInstType_0::SimdDiv            0      0.00%     80.80% # Class of committed instruction
system.cpu.commit.committedInstType_0::SimdSqrt            0      0.00%     80.80% # Class of committed instruction
system.cpu.commit.committedInstType_0::SimdFloatAdd            0      0.00%     80.80% # Class of committed instruction
system.cpu.commit.committedInstType_0::SimdFloatAlu            0      0.00%     80.80% # Class of committed instruction
system.cpu.commit.committedInstType_0::SimdFloatCmp            0      0.00%     80.80% # Class of committed instruction
system.cpu.commit.committedInstType_0::SimdFloatCvt            0      0.00%     80.80% # Class of committed instruction
system.cpu.commit.committedInstType_0::SimdFloatDiv            0      0.00%     80.80% # Class of committed instruction
system.cpu.commit.committedInstType_0::SimdFloatMisc            0      0.00%     80.80% # Class of committed instruction
system.cpu.commit.committedInstType_0::SimdFloatMult            0      0.00%     80.80% # Class of committed instruction
system.cpu.commit.committedInstType_0::SimdFloatMultAcc            0      0.00%     80.80% # Class of committed instruction
system.cpu.commit.committedInstType_0::SimdFloatSqrt            0      0.00%     80.80% # Class of committed instruction
system.cpu.commit.committedInstType_0::SimdReduceAdd            0      0.00%     80.80% # Class of committed instruction
system.cpu.commit.committedInstType_0::SimdReduceAlu            0      0.00%     80.80% # Class of committed instruction
system.cpu.commit.committedInstType_0::SimdReduceCmp            0      0.00%     80.80% # Class of committed instruction
system.cpu.commit.committedInstType_0::SimdFloatReduceAdd            0      0.00%     80.80% # Class of committed instruction
system.cpu.commit.committedInstType_0::SimdFloatReduceCmp            0      0.00%     80.80% # Class of committed instruction
system.cpu.commit.committedInstType_0::SimdAes            0      0.00%     80.80% # Class of committed instruction
system.cpu.commit.committedInstType_0::SimdAesMix            0      0.00%     80.80% # Class of committed instruction
system.cpu.commit.committedInstType_0::SimdSha1Hash            0      0.00%     80.80% # Class of committed instruction
system.cpu.commit.committedInstType_0::SimdSha1Hash2            0      0.00%     80.80% # Class of committed instruction
system.cpu.commit.committedInstType_0::SimdSha256Hash            0      0.00%     80.80% # Class of committed instruction
system.cpu.commit.committedInstType_0::SimdSha256Hash2            0      0.00%     80.80% # Class of committed instruction
system.cpu.commit.committedInstType_0::SimdShaSigma2            0      0.00%     80.80% # Class of committed instruction
system.cpu.commit.committedInstType_0::SimdShaSigma3            0      0.00%     80.80% # Class of committed instruction
system.cpu.commit.committedInstType_0::SimdPredAlu            0      0.00%     80.80% # Class of committed instruction
system.cpu.commit.committedInstType_0::MemRead      1182655     10.31%     91.12% # Class of committed instruction
system.cpu.commit.committedInstType_0::MemWrite      1018016      8.88%    100.00% # Class of committed instruction
system.cpu.commit.committedInstType_0::FloatMemRead           78      0.00%    100.00% # Class of committed instruction
system.cpu.commit.committedInstType_0::FloatMemWrite          466      0.00%    100.00% # Class of committed instruction
system.cpu.commit.committedInstType_0::IprAccess            0      0.00%    100.00% # Class of committed instruction
system.cpu.commit.committedInstType_0::InstPrefetch            0      0.00%    100.00% # Class of committed instruction
system.cpu.commit.committedInstType_0::total     11467340                       # Class of committed instruction
system.cpu.commit.commitEligibleSamples        691126                       # number cycles where commit BW limit reached
system.cpu.dcache.demand_hits::.cpu.data      1544863                       # number of demand (read+write) hits
system.cpu.dcache.demand_hits::total          1544863                       # number of demand (read+write) hits
system.cpu.dcache.overall_hits::.cpu.data      1544863                       # number of overall hits
system.cpu.dcache.overall_hits::total         1544863                       # number of overall hits
system.cpu.dcache.demand_misses::.cpu.data       230187                       # number of demand (read+write) misses
system.cpu.dcache.demand_misses::total         230187                       # number of demand (read+write) misses
system.cpu.dcache.overall_misses::.cpu.data       230187                       # number of overall misses
system.cpu.dcache.overall_misses::total        230187                       # number of overall misses
system.cpu.dcache.demand_miss_latency::.cpu.data  23478348999                       # number of demand (read+write) miss cycles
system.cpu.dcache.demand_miss_latency::total  23478348999                       # number of demand (read+write) miss cycles
system.cpu.dcache.overall_miss_latency::.cpu.data  23478348999                       # number of overall miss cycles
system.cpu.dcache.overall_miss_latency::total  23478348999                       # number of overall miss cycles
system.cpu.dcache.demand_accesses::.cpu.data      1775050                       # number of demand (read+write) accesses
system.cpu.dcache.demand_accesses::total      1775050                       # number of demand (read+write) accesses
system.cpu.dcache.overall_accesses::.cpu.data      1775050                       # number of overall (read+write) accesses
system.cpu.dcache.overall_accesses::total      1775050                       # number of overall (read+write) accesses
system.cpu.dcache.demand_miss_rate::.cpu.data     0.129679                       # miss rate for demand accesses
system.cpu.dcache.demand_miss_rate::total     0.129679                       # miss rate for demand accesses
system.cpu.dcache.overall_miss_rate::.cpu.data     0.129679                       # miss rate for overall accesses
system.cpu.dcache.overall_miss_rate::total     0.129679                       # miss rate for overall accesses
system.cpu.dcache.demand_avg_miss_latency::.cpu.data 101996.850383                       # average overall miss latency
system.cpu.dcache.demand_avg_miss_latency::total 101996.850383                       # average overall miss latency
system.cpu.dcache.overall_avg_miss_latency::.cpu.data 101996.850383                       # average overall miss latency
system.cpu.dcache.overall_avg_miss_latency::total 101996.850383                       # average overall miss latency
system.cpu.dcache.blocked_cycles::no_mshrs         5672                       # number of cycles access was blocked
system.cpu.dcache.blocked_cycles::no_targets            0                       # number of cycles access was blocked
system.cpu.dcache.blocked::no_mshrs                80                       # number of cycles access was blocked
system.cpu.dcache.blocked::no_targets               0                       # number of cycles access was blocked
system.cpu.dcache.avg_blocked_cycles::no_mshrs    70.900000                       # average number of cycles each access was blocked
system.cpu.dcache.avg_blocked_cycles::no_targets          nan                       # average number of cycles each access was blocked
system.cpu.dcache.writebacks::.writebacks        65820                       # number of writebacks
system.cpu.dcache.writebacks::total             65820                       # number of writebacks
system.cpu.dcache.demand_mshr_hits::.cpu.data        32977                       # number of demand (read+write) MSHR hits
system.cpu.dcache.demand_mshr_hits::total        32977                       # number of demand (read+write) MSHR hits
system.cpu.dcache.overall_mshr_hits::.cpu.data        32977                       # number of overall MSHR hits
system.cpu.dcache.overall_mshr_hits::total        32977                       # number of overall MSHR hits
system.cpu.dcache.demand_mshr_misses::.cpu.data       197210                       # number of demand (read+write) MSHR misses
system.cpu.dcache.demand_mshr_misses::total       197210                       # number of demand (read+write) MSHR misses
system.cpu.dcache.overall_mshr_misses::.cpu.data       197210                       # number of overall MSHR misses
system.cpu.dcache.overall_mshr_misses::total       197210                       # number of overall MSHR misses
system.cpu.dcache.demand_mshr_miss_latency::.cpu.data  19913935000                       # number of demand (read+write) MSHR miss cycles
system.cpu.dcache.demand_mshr_miss_latency::total  19913935000                       # number of demand (read+write) MSHR miss cycles
system.cpu.dcache.overall_mshr_miss_latency::.cpu.data  19913935000                       # number of overall MSHR miss cycles
system.cpu.dcache.overall_mshr_miss_latency::total  19913935000                       # number of overall MSHR miss cycles
system.cpu.dcache.demand_mshr_miss_rate::.cpu.data     0.111101                       # mshr miss rate for demand accesses
system.cpu.dcache.demand_mshr_miss_rate::total     0.111101                       # mshr miss rate for demand accesses
system.cpu.dcache.overall_mshr_miss_rate::.cpu.data     0.111101                       # mshr miss rate for overall accesses
system.cpu.dcache.overall_mshr_miss_rate::total     0.111101                       # mshr miss rate for overall accesses
system.cpu.dcache.demand_avg_mshr_miss_latency::.cpu.data 100978.322600                       # average overall mshr miss latency
system.cpu.dcache.demand_avg_mshr_miss_latency::total 100978.322600                       # average overall mshr miss latency
system.cpu.dcache.overall_avg_mshr_miss_latency::.cpu.data 100978.322600                       # average overall mshr miss latency
system.cpu.dcache.overall_avg_mshr_miss_latency::total 100978.322600                       # average overall mshr miss latency
system.cpu.dcache.replacements                 196186                       # number of replacements
system.cpu.dcache.ReadReq_hits::.cpu.data       592134                       # number of ReadReq hits
system.cpu.dcache.ReadReq_hits::total          592134                       # number of ReadReq hits
system.cpu.dcache.ReadReq_misses::.cpu.data       164433                       # number of ReadReq misses
system.cpu.dcache.ReadReq_misses::total        164433                       # number of ReadReq misses
system.cpu.dcache.ReadReq_miss_latency::.cpu.data  16653796000                       # number of ReadReq miss cycles
system.cpu.dcache.ReadReq_miss_latency::total  16653796000                       # number of ReadReq miss cycles
system.cpu.dcache.ReadReq_accesses::.cpu.data       756567                       # number of ReadReq accesses(hits+misses)
system.cpu.dcache.ReadReq_accesses::total       756567                       # number of ReadReq accesses(hits+misses)
system.cpu.dcache.ReadReq_miss_rate::.cpu.data     0.217341                       # miss rate for ReadReq accesses
system.cpu.dcache.ReadReq_miss_rate::total     0.217341                       # miss rate for ReadReq accesses
system.cpu.dcache.ReadReq_avg_miss_latency::.cpu.data 101280.132334                       # average ReadReq miss latency
system.cpu.dcache.ReadReq_avg_miss_latency::total 101280.132334                       # average ReadReq miss latency
system.cpu.dcache.ReadReq_mshr_hits::.cpu.data        32974                       # number of ReadReq MSHR hits
system.cpu.dcache.ReadReq_mshr_hits::total        32974                       # number of ReadReq MSHR hits
system.cpu.dcache.ReadReq_mshr_misses::.cpu.data       131459                       # number of ReadReq MSHR misses
system.cpu.dcache.ReadReq_mshr_misses::total       131459                       # number of ReadReq MSHR misses
system.cpu.dcache.ReadReq_mshr_miss_latency::.cpu.data  13221065000                       # number of ReadReq MSHR miss cycles
system.cpu.dcache.ReadReq_mshr_miss_latency::total  13221065000                       # number of ReadReq MSHR miss cycles
system.cpu.dcache.ReadReq_mshr_miss_rate::.cpu.data     0.173757                       # mshr miss rate for ReadReq accesses
system.cpu.dcache.ReadReq_mshr_miss_rate::total     0.173757                       # mshr miss rate for ReadReq accesses
system.cpu.dcache.ReadReq_avg_mshr_miss_latency::.cpu.data 100571.775230                       # average ReadReq mshr miss latency
system.cpu.dcache.ReadReq_avg_mshr_miss_latency::total 100571.775230                       # average ReadReq mshr miss latency
system.cpu.dcache.WriteReq_hits::.cpu.data       952729                       # number of WriteReq hits
system.cpu.dcache.WriteReq_hits::total         952729                       # number of WriteReq hits
system.cpu.dcache.WriteReq_misses::.cpu.data        65754                       # number of WriteReq misses
system.cpu.dcache.WriteReq_misses::total        65754                       # number of WriteReq misses
system.cpu.dcache.WriteReq_miss_latency::.cpu.data   6824552999                       # number of WriteReq miss cycles
system.cpu.dcache.WriteReq_miss_latency::total   6824552999                       # number of WriteReq miss cycles
system.cpu.dcache.WriteReq_accesses::.cpu.data      1018483                       # number of WriteReq accesses(hits+misses)
system.cpu.dcache.WriteReq_accesses::total      1018483                       # number of WriteReq accesses(hits+misses)
system.cpu.dcache.WriteReq_miss_rate::.cpu.data     0.064561                       # miss rate for WriteReq accesses
system.cpu.dcache.WriteReq_miss_rate::total     0.064561                       # miss rate for WriteReq accesses
system.cpu.dcache.WriteReq_avg_miss_latency::.cpu.data 103789.168705                       # average WriteReq miss latency
system.cpu.dcache.WriteReq_avg_miss_latency::total 103789.168705                       # average WriteReq miss latency
system.cpu.dcache.WriteReq_mshr_hits::.cpu.data            3                       # number of WriteReq MSHR hits
system.cpu.dcache.WriteReq_mshr_hits::total            3                       # number of WriteReq MSHR hits
system.cpu.dcache.WriteReq_mshr_misses::.cpu.data        65751                       # number of WriteReq MSHR misses
system.cpu.dcache.WriteReq_mshr_misses::total        65751                       # number of WriteReq MSHR misses
system.cpu.dcache.WriteReq_mshr_miss_latency::.cpu.data   6692870000                       # number of WriteReq MSHR miss cycles
system.cpu.dcache.WriteReq_mshr_miss_latency::total   6692870000                       # number of WriteReq MSHR miss cycles
system.cpu.dcache.WriteReq_mshr_miss_rate::.cpu.data     0.064558                       # mshr miss rate for WriteReq accesses
system.cpu.dcache.WriteReq_mshr_miss_rate::total     0.064558                       # mshr miss rate for WriteReq accesses
system.cpu.dcache.WriteReq_avg_mshr_miss_latency::.cpu.data 101791.151465                       # average WriteReq mshr miss latency
system.cpu.dcache.WriteReq_avg_mshr_miss_latency::total 101791.151465                       # average WriteReq mshr miss latency
system.cpu.dcache.power_state.pwrStateResidencyTicks::UNDEFINED  16049503000                       # Cumulative time (in ticks) in various power states
system.cpu.dcache.tags.tagsinuse          1018.554041                       # Cycle average of tags in use
system.cpu.dcache.tags.total_refs             1742073                       # Total number of references to valid blocks.
system.cpu.dcache.tags.sampled_refs            197210                       # Sample count of references to valid blocks.
system.cpu.dcache.tags.avg_refs              8.833594                       # Average number of references to valid blocks.
system.cpu.dcache.tags.warmup_cycle            222000                       # Cycle when the warmup percentage was hit.
system.cpu.dcache.tags.occ_blocks::.cpu.data  1018.554041                       # Average occupied blocks per requestor
system.cpu.dcache.tags.occ_percent::.cpu.data     0.994682                       # Average percentage of cache occupancy
system.cpu.dcache.tags.occ_percent::total     0.994682                       # Average percentage of cache occupancy
system.cpu.dcache.tags.occ_task_id_blocks::1024         1024                       # Occupied blocks per task id
system.cpu.dcache.tags.age_task_id_blocks_1024::0          154                       # Occupied blocks per task id
system.cpu.dcache.tags.age_task_id_blocks_1024::1          870                       # Occupied blocks per task id
system.cpu.dcache.tags.occ_task_id_percent::1024            1                       # Percentage of cache occupancy per task id
system.cpu.dcache.tags.tag_accesses           3747310                       # Number of tag accesses
system.cpu.dcache.tags.data_accesses          3747310                       # Number of data accesses
system.cpu.dcache.tags.power_state.pwrStateResidencyTicks::UNDEFINED  16049503000                       # Cumulative time (in ticks) in various power states
system.cpu.decode.idleCycles                   512531                       # Number of cycles decode is idle
system.cpu.decode.blockedCycles              13853335                       # Number of cycles decode is blocked
system.cpu.decode.runCycles                   1339791                       # Number of cycles decode is running
system.cpu.decode.unblockCycles                314203                       # Number of cycles decode is unblocking
system.cpu.decode.squashCycles                   2432                       # Number of cycles decode is squashing
system.cpu.decode.branchResolved               644326                       # Number of times decode resolved a  branch
system.cpu.decode.branchMispred                   229                       # Number of times decode detected a branch misprediction
system.cpu.decode.decodedInsts               11798977                       # Number of instructions handled by decode
system.cpu.decode.squashedInsts                  1088                       # Number of squashed instructions handled by decode
system.cpu.dtb.rdAccesses                     1216055                       # TLB accesses on read requests
system.cpu.dtb.wrAccesses                     1040466                       # TLB accesses on write requests
system.cpu.dtb.rdMisses                          3190                       # TLB misses on read requests
system.cpu.dtb.wrMisses                          3138                       # TLB misses on write requests
system.cpu.dtb.walker.power_state.pwrStateResidencyTicks::UNDEFINED  16049503000                       # Cumulative time (in ticks) in various power states
system.cpu.fetch.icacheStallCycles            1011329                       # Number of cycles fetch is stalled on an Icache miss
system.cpu.fetch.insts                        6649707                       # Number of instructions fetch has processed
system.cpu.fetch.branches                     1291099                       # Number of branches that fetch encountered
system.cpu.fetch.predictedBranches             713880                       # Number of branches that fetch has predicted taken
system.cpu.fetch.cycles                      15007906                       # Number of cycles fetch has run and was not squashing or blocked
system.cpu.fetch.squashCycles                    5314                       # Number of cycles fetch has spent squashing
system.cpu.fetch.miscStallCycles                   62                       # Number of cycles fetch has spent waiting on interrupts,or bad addresses, or out of MSHRs
system.cpu.fetch.pendingTrapStallCycles           331                       # Number of stall cycles due to pending traps
system.cpu.fetch.pendingQuiesceStallCycles            2                       # Number of stall cycles due to pending quiesce instructions
system.cpu.fetch.icacheWaitRetryStallCycles            5                       # Number of stall cycles due to full MSHR
system.cpu.fetch.cacheLines                    990139                       # Number of cache lines fetched
system.cpu.fetch.icacheSquashes                   510                       # Number of outstanding Icache misses that were squashed
system.cpu.fetch.nisnDist::samples           16022292                       # Number of instructions fetched each cycle (Total)
system.cpu.fetch.nisnDist::mean              0.740691                       # Number of instructions fetched each cycle (Total)
system.cpu.fetch.nisnDist::stdev             2.147387                       # Number of instructions fetched each cycle (Total)
system.cpu.fetch.nisnDist::underflows               0      0.00%      0.00% # Number of instructions fetched each cycle (Total)
system.cpu.fetch.nisnDist::0                 14125906     88.16%     88.16% # Number of instructions fetched each cycle (Total)
system.cpu.fetch.nisnDist::1                    40765      0.25%     88.42% # Number of instructions fetched each cycle (Total)
system.cpu.fetch.nisnDist::2                    79615      0.50%     88.92% # Number of instructions fetched each cycle (Total)
system.cpu.fetch.nisnDist::3                   213759      1.33%     90.25% # Number of instructions fetched each cycle (Total)
system.cpu.fetch.nisnDist::4                    78236      0.49%     90.74% # Number of instructions fetched each cycle (Total)
system.cpu.fetch.nisnDist::5                   243421      1.52%     92.26% # Number of instructions fetched each cycle (Total)
system.cpu.fetch.nisnDist::6                    41177      0.26%     92.51% # Number of instructions fetched each cycle (Total)
system.cpu.fetch.nisnDist::7                   346124      2.16%     94.67% # Number of instructions fetched each cycle (Total)
system.cpu.fetch.nisnDist::8                   853289      5.33%    100.00% # Number of instructions fetched each cycle (Total)
system.cpu.fetch.nisnDist::overflows                0      0.00%    100.00% # Number of instructions fetched each cycle (Total)
system.cpu.fetch.nisnDist::min_value                0                       # Number of instructions fetched each cycle (Total)
system.cpu.fetch.nisnDist::max_value                8                       # Number of instructions fetched each cycle (Total)
system.cpu.fetch.nisnDist::total             16022292                       # Number of instructions fetched each cycle (Total)
system.cpu.fetch.branchRate                  0.080445                       # Number of branch fetches per cycle
system.cpu.fetch.rate                        0.414325                       # Number of inst fetches per cycle
system.cpu.icache.demand_hits::.cpu.inst       989328                       # number of demand (read+write) hits
system.cpu.icache.demand_hits::total           989328                       # number of demand (read+write) hits
system.cpu.icache.overall_hits::.cpu.inst       989328                       # number of overall hits
system.cpu.icache.overall_hits::total          989328                       # number of overall hits
system.cpu.icache.demand_misses::.cpu.inst          811                       # number of demand (read+write) misses
system.cpu.icache.demand_misses::total            811                       # number of demand (read+write) misses
system.cpu.icache.overall_misses::.cpu.inst          811                       # number of overall misses
system.cpu.icache.overall_misses::total           811                       # number of overall misses
system.cpu.icache.demand_miss_latency::.cpu.inst     77704999                       # number of demand (read+write) miss cycles
system.cpu.icache.demand_miss_latency::total     77704999                       # number of demand (read+write) miss cycles
system.cpu.icache.overall_miss_latency::.cpu.inst     77704999                       # number of overall miss cycles
system.cpu.icache.overall_miss_latency::total     77704999                       # number of overall miss cycles
system.cpu.icache.demand_accesses::.cpu.inst       990139                       # number of demand (read+write) accesses
system.cpu.icache.demand_accesses::total       990139                       # number of demand (read+write) accesses
system.cpu.icache.overall_accesses::.cpu.inst       990139                       # number of overall (read+write) accesses
system.cpu.icache.overall_accesses::total       990139                       # number of overall (read+write) accesses
system.cpu.icache.demand_miss_rate::.cpu.inst     0.000819                       # miss rate for demand accesses
system.cpu.icache.demand_miss_rate::total     0.000819                       # miss rate for demand accesses
system.cpu.icache.overall_miss_rate::.cpu.inst     0.000819                       # miss rate for overall accesses
system.cpu.icache.overall_miss_rate::total     0.000819                       # miss rate for overall accesses
system.cpu.icache.demand_avg_miss_latency::.cpu.inst 95813.808878                       # average overall miss latency
system.cpu.icache.demand_avg_miss_latency::total 95813.808878                       # average overall miss latency
system.cpu.icache.overall_avg_miss_latency::.cpu.inst 95813.808878                       # average overall miss latency
system.cpu.icache.overall_avg_miss_latency::total 95813.808878                       # average overall miss latency
system.cpu.icache.blocked_cycles::no_mshrs          180                       # number of cycles access was blocked
system.cpu.icache.blocked_cycles::no_targets            0                       # number of cycles access was blocked
system.cpu.icache.blocked::no_mshrs                 5                       # number of cycles access was blocked
system.cpu.icache.blocked::no_targets               0                       # number of cycles access was blocked
system.cpu.icache.avg_blocked_cycles::no_mshrs           36                       # average number of cycles each access was blocked
system.cpu.icache.avg_blocked_cycles::no_targets          nan                       # average number of cycles each access was blocked
system.cpu.icache.demand_mshr_hits::.cpu.inst          206                       # number of demand (read+write) MSHR hits
system.cpu.icache.demand_mshr_hits::total          206                       # number of demand (read+write) MSHR hits
system.cpu.icache.overall_mshr_hits::.cpu.inst          206                       # number of overall MSHR hits
system.cpu.icache.overall_mshr_hits::total          206                       # number of overall MSHR hits
system.cpu.icache.demand_mshr_misses::.cpu.inst          605                       # number of demand (read+write) MSHR misses
system.cpu.icache.demand_mshr_misses::total          605                       # number of demand (read+write) MSHR misses
system.cpu.icache.overall_mshr_misses::.cpu.inst          605                       # number of overall MSHR misses
system.cpu.icache.overall_mshr_misses::total          605                       # number of overall MSHR misses
system.cpu.icache.demand_mshr_miss_latency::.cpu.inst     61462999                       # number of demand (read+write) MSHR miss cycles
system.cpu.icache.demand_mshr_miss_latency::total     61462999                       # number of demand (read+write) MSHR miss cycles
system.cpu.icache.overall_mshr_miss_latency::.cpu.inst     61462999                       # number of overall MSHR miss cycles
system.cpu.icache.overall_mshr_miss_latency::total     61462999                       # number of overall MSHR miss cycles
system.cpu.icache.demand_mshr_miss_rate::.cpu.inst     0.000611                       # mshr miss rate for demand accesses
system.cpu.icache.demand_mshr_miss_rate::total     0.000611                       # mshr miss rate for demand accesses
system.cpu.icache.overall_mshr_miss_rate::.cpu.inst     0.000611                       # mshr miss rate for overall accesses
system.cpu.icache.overall_mshr_miss_rate::total     0.000611                       # mshr miss rate for overall accesses
system.cpu.icache.demand_avg_mshr_miss_latency::.cpu.inst 101591.733884                       # average overall mshr miss latency
system.cpu.icache.demand_avg_mshr_miss_latency::total 101591.733884                       # average overall mshr miss latency
system.cpu.icache.overall_avg_mshr_miss_latency::.cpu.inst 101591.733884                       # average overall mshr miss latency
system.cpu.icache.overall_avg_mshr_miss_latency::total 101591.733884                       # average overall mshr miss latency
system.cpu.icache.replacements                    366                       # number of replacements
system.cpu.icache.ReadReq_hits::.cpu.inst       989328                       # number of ReadReq hits
system.cpu.icache.ReadReq_hits::total          989328                       # number of ReadReq hits
system.cpu.icache.ReadReq_misses::.cpu.inst          811                       # number of ReadReq misses
system.cpu.icache.ReadReq_misses::total           811                       # number of ReadReq misses
system.cpu.icache.ReadReq_miss_latency::.cpu.inst     77704999                       # number of ReadReq miss cycles
system.cpu.icache.ReadReq_miss_latency::total     77704999                       # number of ReadReq miss cycles
system.cpu.icache.ReadReq_accesses::.cpu.inst       990139                       # number of ReadReq accesses(hits+misses)
system.cpu.icache.ReadReq_accesses::total       990139                       # number of ReadReq accesses(hits+misses)
system.cpu.icache.ReadReq_miss_rate::.cpu.inst     0.000819                       # miss rate for ReadReq accesses
system.cpu.icache.ReadReq_miss_rate::total     0.000819                       # miss rate for ReadReq accesses
system.cpu.icache.ReadReq_avg_miss_latency::.cpu.inst 95813.808878                       # average ReadReq miss latency
system.cpu.icache.ReadReq_avg_miss_latency::total 95813.808878                       # average ReadReq miss latency
system.cpu.icache.ReadReq_mshr_hits::.cpu.inst          206                       # number of ReadReq MSHR hits
system.cpu.icache.ReadReq_mshr_hits::total          206                       # number of ReadReq MSHR hits
system.cpu.icache.ReadReq_mshr_misses::.cpu.inst          605                       # number of ReadReq MSHR misses
system.cpu.icache.ReadReq_mshr_misses::total          605                       # number of ReadReq MSHR misses
system.cpu.icache.ReadReq_mshr_miss_latency::.cpu.inst     61462999                       # number of ReadReq MSHR miss cycles
system.cpu.icache.ReadReq_mshr_miss_latency::total     61462999                       # number of ReadReq MSHR miss cycles
system.cpu.icache.ReadReq_mshr_miss_rate::.cpu.inst     0.000611                       # mshr miss rate for ReadReq accesses
system.cpu.icache.ReadReq_mshr_miss_rate::total     0.000611                       # mshr miss rate for ReadReq accesses
system.cpu.icache.ReadReq_avg_mshr_miss_latency::.cpu.inst 101591.733884                       # average ReadReq mshr miss latency
system.cpu.icache.ReadReq_avg_mshr_miss_latency::total 101591.733884                       # average ReadReq mshr miss latency
system.cpu.icache.power_state.pwrStateResidencyTicks::UNDEFINED  16049503000                       # Cumulative time (in ticks) in various power states
system.cpu.icache.tags.tagsinuse           237.725132                       # Cycle average of tags in use
system.cpu.icache.tags.total_refs              989932                       # Total number of references to valid blocks.
system.cpu.icache.tags.sampled_refs               604                       # Sample count of references to valid blocks.
system.cpu.icache.tags.avg_refs           1638.960265                       # Average number of references to valid blocks.
system.cpu.icache.tags.warmup_cycle            107000                       # Cycle when the warmup percentage was hit.
system.cpu.icache.tags.occ_blocks::.cpu.inst   237.725132                       # Average occupied blocks per requestor
system.cpu.icache.tags.occ_percent::.cpu.inst     0.928614                       # Average percentage of cache occupancy
system.cpu.icache.tags.occ_percent::total     0.928614                       # Average percentage of cache occupancy
system.cpu.icache.tags.occ_task_id_blocks::1024          238                       # Occupied blocks per task id
system.cpu.icache.tags.age_task_id_blocks_1024::0           34                       # Occupied blocks per task id
system.cpu.icache.tags.age_task_id_blocks_1024::3            3                       # Occupied blocks per task id
system.cpu.icache.tags.age_task_id_blocks_1024::4          201                       # Occupied blocks per task id
system.cpu.icache.tags.occ_task_id_percent::1024     0.929688                       # Percentage of cache occupancy per task id
system.cpu.icache.tags.tag_accesses           1980882                       # Number of tag accesses
system.cpu.icache.tags.data_accesses          1980882                       # Number of data accesses
system.cpu.icache.tags.power_state.pwrStateResidencyTicks::UNDEFINED  16049503000                       # Cumulative time (in ticks) in various power states
system.cpu.interrupts.clk_domain.clock          16000                       # Clock period in ticks
system.cpu.itb.rdAccesses                           0                       # TLB accesses on read requests
system.cpu.itb.wrAccesses                      990202                       # TLB accesses on write requests
system.cpu.itb.rdMisses                             0                       # TLB misses on read requests
system.cpu.itb.wrMisses                           105                       # TLB misses on write requests
system.cpu.itb.walker.power_state.pwrStateResidencyTicks::UNDEFINED  16049503000                       # Cumulative time (in ticks) in various power states
system.cpu.lsq0.forwLoads                      459387                       # Number of loads that had data forwarded from stores
system.cpu.lsq0.squashedLoads                   34125                       # Number of loads squashed
system.cpu.lsq0.ignoredResponses                    2                       # Number of memory responses ignored because the instruction is squashed
system.cpu.lsq0.memOrderViolation                  17                       # Number of memory ordering violations
system.cpu.lsq0.squashedStores                  22468                       # Number of stores squashed
system.cpu.lsq0.rescheduledLoads                    2                       # Number of loads that were rescheduled
system.cpu.lsq0.blockedByCache                     72                       # Number of times an access to memory failed due to the cache being blocked
system.cpu.power_state.pwrStateResidencyTicks::ON  16049503000                       # Cumulative time (in ticks) in various power states
system.cpu.rename.squashCycles                   2432                       # Number of cycles rename is squashing
system.cpu.rename.idleCycles                   650929                       # Number of cycles rename is idle
system.cpu.rename.blockCycles                 6850786                       # Number of cycles rename is blocking
system.cpu.rename.serializeStallCycles            386                       # count of cycles rename stalledfor serializing inst
system.cpu.rename.runCycles                   1502852                       # Number of cycles rename is running
system.cpu.rename.unblockCycles               7014907                       # Number of cycles rename is unblocking
system.cpu.rename.renamedInsts               11788979                       # Number of instructions processed by rename
system.cpu.rename.ROBFullEvents                  4634                       # Number of times rename has blocked due to ROB full
system.cpu.rename.IQFullEvents                 198157                       # Number of times rename has blocked due to IQ full
system.cpu.rename.SQFullEvents                6768091                       # Number of times rename has blocked due to SQ full
system.cpu.rename.renamedOperands            13488814                       # Number of destination operands rename has renamed
system.cpu.rename.lookups                    30157303                       # Number of register rename lookups that rename has made
system.cpu.rename.intLookups                 18020006                       # Number of integer rename lookups
system.cpu.rename.fpLookups                      1869                       # Number of floating rename lookups
system.cpu.rename.committedMaps              13141967                       # Number of HB maps that are committed
system.cpu.rename.undoneMaps                   346841                       # Number of HB maps that are undone due to squashing
system.cpu.rename.serializing                      11                       # count of serializing insts renamed
system.cpu.rename.tempSerializing                   8                       # count of temporary serializing insts renamed
system.cpu.rename.skidInsts                   1974354                       # count of insts added to the skid buffer
system.cpu.rob.reads                         27054049                       # The number of ROB reads
system.cpu.rob.writes                        23609273                       # The number of ROB writes
system.cpu.thread_0.numInsts                  6438899                       # Number of Instructions committed
system.cpu.thread_0.numOps                   11467340                       # Number of Ops committed
system.cpu.thread_0.numMemRefs                      0                       # Number of Memory References
system.l2bus.trans_dist::ReadResp              132063                       # Transaction distribution
system.l2bus.trans_dist::WritebackDirty        131639                       # Transaction distribution
system.l2bus.trans_dist::CleanEvict            327995                       # Transaction distribution
system.l2bus.trans_dist::ReadExReq              65751                       # Transaction distribution
system.l2bus.trans_dist::ReadExResp             65751                       # Transaction distribution
system.l2bus.trans_dist::ReadSharedReq         132064                       # Transaction distribution
system.l2bus.pkt_count_system.cpu.icache.mem_side_port::system.l2cache.cpu_side_port         1575                       # Packet count per connected requestor and responder (bytes)
system.l2bus.pkt_count_system.cpu.dcache.mem_side_port::system.l2cache.cpu_side_port       590606                       # Packet count per connected requestor and responder (bytes)
system.l2bus.pkt_count::total                  592181                       # Packet count per connected requestor and responder (bytes)
system.l2bus.pkt_size_system.cpu.icache.mem_side_port::system.l2cache.cpu_side_port        38656                       # Cumulative packet size per connected requestor and responder (bytes)
system.l2bus.pkt_size_system.cpu.dcache.mem_side_port::system.l2cache.cpu_side_port     16833920                       # Cumulative packet size per connected requestor and responder (bytes)
system.l2bus.pkt_size::total                 16872576                       # Cumulative packet size per connected requestor and responder (bytes)
system.l2bus.snoops                            263082                       # Total snoops (count)
system.l2bus.snoopTraffic                     4212416                       # Total snoop traffic (bytes)
system.l2bus.snoop_fanout::samples             460897                       # Request fanout histogram
system.l2bus.snoop_fanout::mean              0.427532                       # Request fanout histogram
system.l2bus.snoop_fanout::stdev             0.494721                       # Request fanout histogram
system.l2bus.snoop_fanout::underflows               0      0.00%      0.00% # Request fanout histogram
system.l2bus.snoop_fanout::0                   263849     57.25%     57.25% # Request fanout histogram
system.l2bus.snoop_fanout::1                   197048     42.75%    100.00% # Request fanout histogram
system.l2bus.snoop_fanout::2                        0      0.00%    100.00% # Request fanout histogram
system.l2bus.snoop_fanout::overflows                0      0.00%    100.00% # Request fanout histogram
system.l2bus.snoop_fanout::min_value                0                       # Request fanout histogram
system.l2bus.snoop_fanout::max_value                1                       # Request fanout histogram
system.l2bus.snoop_fanout::total               460897                       # Request fanout histogram
system.l2bus.power_state.pwrStateResidencyTicks::UNDEFINED  16049503000                       # Cumulative time (in ticks) in various power states
system.l2bus.reqLayer0.occupancy            526007000                       # Layer occupancy (ticks)
system.l2bus.reqLayer0.utilization                3.3                       # Layer utilization (%)
system.l2bus.respLayer0.occupancy             1812000                       # Layer occupancy (ticks)
system.l2bus.respLayer0.utilization               0.0                       # Layer utilization (%)
system.l2bus.respLayer1.occupancy           591630000                       # Layer occupancy (ticks)
system.l2bus.respLayer1.utilization               3.7                       # Layer utilization (%)
system.l2cache.demand_hits::.cpu.inst              29                       # number of demand (read+write) hits
system.l2cache.demand_hits::.cpu.data               1                       # number of demand (read+write) hits
system.l2cache.demand_hits::total                  30                       # number of demand (read+write) hits
system.l2cache.overall_hits::.cpu.inst             29                       # number of overall hits
system.l2cache.overall_hits::.cpu.data              1                       # number of overall hits
system.l2cache.overall_hits::total                 30                       # number of overall hits
system.l2cache.demand_misses::.cpu.inst           576                       # number of demand (read+write) misses
system.l2cache.demand_misses::.cpu.data        197209                       # number of demand (read+write) misses
system.l2cache.demand_misses::total            197785                       # number of demand (read+write) misses
system.l2cache.overall_misses::.cpu.inst          576                       # number of overall misses
system.l2cache.overall_misses::.cpu.data       197209                       # number of overall misses
system.l2cache.overall_misses::total           197785                       # number of overall misses
system.l2cache.demand_miss_latency::.cpu.inst     58993000                       # number of demand (read+write) miss cycles
system.l2cache.demand_miss_latency::.cpu.data  19224396000                       # number of demand (read+write) miss cycles
system.l2cache.demand_miss_latency::total  19283389000                       # number of demand (read+write) miss cycles
system.l2cache.overall_miss_latency::.cpu.inst     58993000                       # number of overall miss cycles
system.l2cache.overall_miss_latency::.cpu.data  19224396000                       # number of overall miss cycles
system.l2cache.overall_miss_latency::total  19283389000                       # number of overall miss cycles
system.l2cache.demand_accesses::.cpu.inst          605                       # number of demand (read+write) accesses
system.l2cache.demand_accesses::.cpu.data       197210                       # number of demand (read+write) accesses
system.l2cache.demand_accesses::total          197815                       # number of demand (read+write) accesses
system.l2cache.overall_accesses::.cpu.inst          605                       # number of overall (read+write) accesses
system.l2cache.overall_accesses::.cpu.data       197210                       # number of overall (read+write) accesses
system.l2cache.overall_accesses::total         197815                       # number of overall (read+write) accesses
system.l2cache.demand_miss_rate::.cpu.inst     0.952066                       # miss rate for demand accesses
system.l2cache.demand_miss_rate::.cpu.data     0.999995                       # miss rate for demand accesses
system.l2cache.demand_miss_rate::total       0.999848                       # miss rate for demand accesses
system.l2cache.overall_miss_rate::.cpu.inst     0.952066                       # miss rate for overall accesses
system.l2cache.overall_miss_rate::.cpu.data     0.999995                       # miss rate for overall accesses
system.l2cache.overall_miss_rate::total      0.999848                       # miss rate for overall accesses
system.l2cache.demand_avg_miss_latency::.cpu.inst 102418.402778                       # average overall miss latency
system.l2cache.demand_avg_miss_latency::.cpu.data 97482.346140                       # average overall miss latency
system.l2cache.demand_avg_miss_latency::total 97496.721187                       # average overall miss latency
system.l2cache.overall_avg_miss_latency::.cpu.inst 102418.402778                       # average overall miss latency
system.l2cache.overall_avg_miss_latency::.cpu.data 97482.346140                       # average overall miss latency
system.l2cache.overall_avg_miss_latency::total 97496.721187                       # average overall miss latency
system.l2cache.blocked_cycles::no_mshrs             0                       # number of cycles access was blocked
system.l2cache.blocked_cycles::no_targets            0                       # number of cycles access was blocked
system.l2cache.blocked::no_mshrs                    0                       # number of cycles access was blocked
system.l2cache.blocked::no_targets                  0                       # number of cycles access was blocked
system.l2cache.avg_blocked_cycles::no_mshrs          nan                       # average number of cycles each access was blocked
system.l2cache.avg_blocked_cycles::no_targets          nan                       # average number of cycles each access was blocked
system.l2cache.writebacks::.writebacks          65819                       # number of writebacks
system.l2cache.writebacks::total                65819                       # number of writebacks
system.l2cache.demand_mshr_misses::.cpu.inst          576                       # number of demand (read+write) MSHR misses
[...]
system.mem_ctrl.requestorReadRate::.cpu.data 786259362.673099637032                       # Per-requestor bytes read from memory rate (Bytes/sec)
system.mem_ctrl.requestorWriteRate::.writebacks 262388187.347608208656                       # Per-requestor bytes write to memory rate (Bytes/sec)
system.mem_ctrl.requestorReadAccesses::.cpu.inst          575                       # Per-requestor read serviced memory accesses
system.mem_ctrl.requestorReadAccesses::.cpu.data       197209                       # Per-requestor read serviced memory accesses
system.mem_ctrl.requestorWriteAccesses::.writebacks        65819                       # Per-requestor write serviced memory accesses
system.mem_ctrl.requestorReadTotalLat::.cpu.inst     17960500                       # Per-requestor read total memory access latency
system.mem_ctrl.requestorReadTotalLat::.cpu.data   5169257750                       # Per-requestor read total memory access latency
system.mem_ctrl.requestorWriteTotalLat::.writebacks 219218759250                       # Per-requestor write total memory access latency
system.mem_ctrl.requestorReadAvgLat::.cpu.inst     31235.65                       # Per-requestor read average memory access latency
system.mem_ctrl.requestorReadAvgLat::.cpu.data     26212.08                       # Per-requestor read average memory access latency
system.mem_ctrl.requestorWriteAvgLat::.writebacks   3330630.35                       # Per-requestor write average memory access latency
system.mem_ctrl.dram.bytes_read::.cpu.inst        36800                       # Number of bytes read from this memory
system.mem_ctrl.dram.bytes_read::.cpu.data     12621376                       # Number of bytes read from this memory
system.mem_ctrl.dram.bytes_read::total       12658176                       # Number of bytes read from this memory
system.mem_ctrl.dram.bytes_inst_read::.cpu.inst        36800                       # Number of instructions bytes read from this memory
system.mem_ctrl.dram.bytes_inst_read::total        36800                       # Number of instructions bytes read from this memory
system.mem_ctrl.dram.bytes_written::.writebacks      4212416                       # Number of bytes written to this memory
system.mem_ctrl.dram.bytes_written::total      4212416                       # Number of bytes written to this memory
system.mem_ctrl.dram.num_reads::.cpu.inst          575                       # Number of read requests responded to by this memory
system.mem_ctrl.dram.num_reads::.cpu.data       197209                       # Number of read requests responded to by this memory
system.mem_ctrl.dram.num_reads::total          197784                       # Number of read requests responded to by this memory
system.mem_ctrl.dram.num_writes::.writebacks        65819                       # Number of write requests responded to by this memory
system.mem_ctrl.dram.num_writes::total          65819                       # Number of write requests responded to by this memory
system.mem_ctrl.dram.bw_read::.cpu.inst       2292906                       # Total read bandwidth from this memory (bytes/s)
system.mem_ctrl.dram.bw_read::.cpu.data     786402919                       # Total read bandwidth from this memory (bytes/s)
system.mem_ctrl.dram.bw_read::total         788695824                       # Total read bandwidth from this memory (bytes/s)
system.mem_ctrl.dram.bw_inst_read::.cpu.inst      2292906                       # Instruction read bandwidth from this memory (bytes/s)
system.mem_ctrl.dram.bw_inst_read::total      2292906                       # Instruction read bandwidth from this memory (bytes/s)
system.mem_ctrl.dram.bw_write::.writebacks    262463953                       # Write bandwidth from this memory (bytes/s)
system.mem_ctrl.dram.bw_write::total        262463953                       # Write bandwidth from this memory (bytes/s)
system.mem_ctrl.dram.bw_total::.writebacks    262463953                       # Total bandwidth to/from this memory (bytes/s)
system.mem_ctrl.dram.bw_total::.cpu.inst      2292906                       # Total bandwidth to/from this memory (bytes/s)
system.mem_ctrl.dram.bw_total::.cpu.data    786402919                       # Total bandwidth to/from this memory (bytes/s)
system.mem_ctrl.dram.bw_total::total       1051159777                       # Total bandwidth to/from this memory (bytes/s)
system.mem_ctrl.dram.readBursts                197748                       # Number of DRAM read bursts
system.mem_ctrl.dram.writeBursts                65800                       # Number of DRAM write bursts
system.mem_ctrl.dram.perBankRdBursts::0         12619                       # Per bank write bursts
system.mem_ctrl.dram.perBankRdBursts::1         12345                       # Per bank write bursts
system.mem_ctrl.dram.perBankRdBursts::2         12433                       # Per bank write bursts
system.mem_ctrl.dram.perBankRdBursts::3         12303                       # Per bank write bursts
system.mem_ctrl.dram.perBankRdBursts::4         12320                       # Per bank write bursts
system.mem_ctrl.dram.perBankRdBursts::5         12305                       # Per bank write bursts
system.mem_ctrl.dram.perBankRdBursts::6         12360                       # Per bank write bursts
system.mem_ctrl.dram.perBankRdBursts::7         12330                       # Per bank write bursts
system.mem_ctrl.dram.perBankRdBursts::8         12349                       # Per bank write bursts
system.mem_ctrl.dram.perBankRdBursts::9         12299                       # Per bank write bursts
system.mem_ctrl.dram.perBankRdBursts::10        12300                       # Per bank write bursts
system.mem_ctrl.dram.perBankRdBursts::11        12321                       # Per bank write bursts
system.mem_ctrl.dram.perBankRdBursts::12        12351                       # Per bank write bursts
system.mem_ctrl.dram.perBankRdBursts::13        12303                       # Per bank write bursts
system.mem_ctrl.dram.perBankRdBursts::14        12366                       # Per bank write bursts
system.mem_ctrl.dram.perBankRdBursts::15        12444                       # Per bank write bursts
system.mem_ctrl.dram.perBankWrBursts::0          4162                       # Per bank write bursts
system.mem_ctrl.dram.perBankWrBursts::1          4097                       # Per bank write bursts
system.mem_ctrl.dram.perBankWrBursts::2          4214                       # Per bank write bursts
system.mem_ctrl.dram.perBankWrBursts::3          4101                       # Per bank write bursts
system.mem_ctrl.dram.perBankWrBursts::4          4127                       # Per bank write bursts
system.mem_ctrl.dram.perBankWrBursts::5          4096                       # Per bank write bursts
system.mem_ctrl.dram.perBankWrBursts::6          4096                       # Per bank write bursts
system.mem_ctrl.dram.perBankWrBursts::7          4096                       # Per bank write bursts
system.mem_ctrl.dram.perBankWrBursts::8          4096                       # Per bank write bursts
system.mem_ctrl.dram.perBankWrBursts::9          4096                       # Per bank write bursts
system.mem_ctrl.dram.perBankWrBursts::10         4096                       # Per bank write bursts
system.mem_ctrl.dram.perBankWrBursts::11         4096                       # Per bank write bursts
system.mem_ctrl.dram.perBankWrBursts::12         4096                       # Per bank write bursts
system.mem_ctrl.dram.perBankWrBursts::13         4096                       # Per bank write bursts
system.mem_ctrl.dram.perBankWrBursts::14         4096                       # Per bank write bursts
system.mem_ctrl.dram.perBankWrBursts::15         4139                       # Per bank write bursts
system.mem_ctrl.dram.totQLat               1479443250                       # Total ticks spent queuing
system.mem_ctrl.dram.totBusLat              988740000                       # Total ticks spent in databus transfers
system.mem_ctrl.dram.totMemAccLat          5187218250                       # Total ticks spent from burst creation until serviced by the DRAM
system.mem_ctrl.dram.avgQLat                  7481.46                       # Average queueing delay per DRAM burst
system.mem_ctrl.dram.avgBusLat                5000.00                       # Average bus latency per DRAM burst
system.mem_ctrl.dram.avgMemAccLat            26231.46                       # Average memory access latency per DRAM burst
system.mem_ctrl.dram.readRowHits               181628                       # Number of row buffer hits during reads
system.mem_ctrl.dram.writeRowHits               58292                       # Number of row buffer hits during writes
system.mem_ctrl.dram.readRowHitRate             91.85                       # Row buffer hit rate for reads
system.mem_ctrl.dram.writeRowHitRate            88.59                       # Row buffer hit rate for writes
system.mem_ctrl.dram.bytesPerActivate::samples        23624                       # Bytes accessed per row activation
system.mem_ctrl.dram.bytesPerActivate::mean   713.939722                       # Bytes accessed per row activation
system.mem_ctrl.dram.bytesPerActivate::gmean   531.702623                       # Bytes accessed per row activation
system.mem_ctrl.dram.bytesPerActivate::stdev   381.543722                       # Bytes accessed per row activation
system.mem_ctrl.dram.bytesPerActivate::0-127         2004      8.48%      8.48% # Bytes accessed per row activation
system.mem_ctrl.dram.bytesPerActivate::128-255         2953     12.50%     20.98% # Bytes accessed per row activation
system.mem_ctrl.dram.bytesPerActivate::256-383         1446      6.12%     27.10% # Bytes accessed per row activation
system.mem_ctrl.dram.bytesPerActivate::384-511         1258      5.33%     32.43% # Bytes accessed per row activation
system.mem_ctrl.dram.bytesPerActivate::512-639          793      3.36%     35.79% # Bytes accessed per row activation
system.mem_ctrl.dram.bytesPerActivate::640-767          999      4.23%     40.01% # Bytes accessed per row activation
system.mem_ctrl.dram.bytesPerActivate::768-895          842      3.56%     43.58% # Bytes accessed per row activation
system.mem_ctrl.dram.bytesPerActivate::896-1023          875      3.70%     47.28% # Bytes accessed per row activation
system.mem_ctrl.dram.bytesPerActivate::1024-1151        12454     52.72%    100.00% # Bytes accessed per row activation
system.mem_ctrl.dram.bytesPerActivate::total        23624                       # Bytes accessed per row activation
system.mem_ctrl.dram.bytesRead               12655872                       # Total number of bytes read from DRAM
system.mem_ctrl.dram.bytesWritten             4211200                       # Total number of bytes written to DRAM
system.mem_ctrl.dram.avgRdBW               788.552269                       # Average DRAM read bandwidth in MiBytes/s
system.mem_ctrl.dram.avgWrBW               262.388187                       # Average DRAM write bandwidth in MiBytes/s
system.mem_ctrl.dram.peakBW                  12800.00                       # Theoretical peak bandwidth in MiByte/s
system.mem_ctrl.dram.busUtil                     8.21                       # Data bus utilization in percentage
system.mem_ctrl.dram.busUtilRead                 6.16                       # Data bus utilization in percentage for reads
system.mem_ctrl.dram.busUtilWrite                2.05                       # Data bus utilization in percentage for writes
system.mem_ctrl.dram.pageHitRate                91.03                       # Row buffer hit rate, read and write combined
system.mem_ctrl.dram.power_state.pwrStateResidencyTicks::UNDEFINED  16049503000                       # Cumulative time (in ticks) in various power states
system.mem_ctrl.dram.rank0.actEnergy         84958860                       # Energy for activate commands per rank (pJ)
system.mem_ctrl.dram.rank0.preEnergy         45145320                       # Energy for precharge commands per rank (pJ)
system.mem_ctrl.dram.rank0.readEnergy       706967100                       # Energy for read commands per rank (pJ)
system.mem_ctrl.dram.rank0.writeEnergy      172202580                       # Energy for write commands per rank (pJ)
system.mem_ctrl.dram.rank0.refreshEnergy 1266773040.000000                       # Energy for refresh commands per rank (pJ)
system.mem_ctrl.dram.rank0.actBackEnergy   4624919580                       # Energy for active background per rank (pJ)
system.mem_ctrl.dram.rank0.preBackEnergy   2268340320                       # Energy for precharge background per rank (pJ)
system.mem_ctrl.dram.rank0.actPowerDownEnergy            0                       # Energy for active power-down per rank (pJ)
system.mem_ctrl.dram.rank0.prePowerDownEnergy            0                       # Energy for precharge power-down per rank (pJ)
system.mem_ctrl.dram.rank0.selfRefreshEnergy            0                       # Energy for self refresh per rank (pJ)
system.mem_ctrl.dram.rank0.totalEnergy     9169306800                       # Total energy per rank (pJ)
system.mem_ctrl.dram.rank0.averagePower    571.314065                       # Core power per rank (mW)
system.mem_ctrl.dram.rank0.totalIdleTime            0                       # Total Idle time Per DRAM Rank
system.mem_ctrl.dram.rank0.pwrStateTime::IDLE   5826849000                       # Time in different power states
system.mem_ctrl.dram.rank0.pwrStateTime::REF    535860000                       # Time in different power states
system.mem_ctrl.dram.rank0.pwrStateTime::SREF            0                       # Time in different power states
system.mem_ctrl.dram.rank0.pwrStateTime::PRE_PDN            0                       # Time in different power states
system.mem_ctrl.dram.rank0.pwrStateTime::ACT   9686794000                       # Time in different power states
system.mem_ctrl.dram.rank0.pwrStateTime::ACT_PDN            0                       # Time in different power states
system.mem_ctrl.dram.rank1.actEnergy         83745060                       # Energy for activate commands per rank (pJ)
system.mem_ctrl.dram.rank1.preEnergy         44507760                       # Energy for precharge commands per rank (pJ)
system.mem_ctrl.dram.rank1.readEnergy       704953620                       # Energy for read commands per rank (pJ)
system.mem_ctrl.dram.rank1.writeEnergy      171273420                       # Energy for write commands per rank (pJ)
system.mem_ctrl.dram.rank1.refreshEnergy 1266773040.000000                       # Energy for refresh commands per rank (pJ)
system.mem_ctrl.dram.rank1.actBackEnergy   4569467130                       # Energy for active background per rank (pJ)
system.mem_ctrl.dram.rank1.preBackEnergy   2315037120                       # Energy for precharge background per rank (pJ)
system.mem_ctrl.dram.rank1.actPowerDownEnergy            0                       # Energy for active power-down per rank (pJ)
system.mem_ctrl.dram.rank1.prePowerDownEnergy            0                       # Energy for precharge power-down per rank (pJ)
system.mem_ctrl.dram.rank1.selfRefreshEnergy            0                       # Energy for self refresh per rank (pJ)
system.mem_ctrl.dram.rank1.totalEnergy     9155757150                       # Total energy per rank (pJ)
system.mem_ctrl.dram.rank1.averagePower    570.469824                       # Core power per rank (mW)
system.mem_ctrl.dram.rank1.totalIdleTime            0                       # Total Idle time Per DRAM Rank
system.mem_ctrl.dram.rank1.pwrStateTime::IDLE   5947235500                       # Time in different power states
system.mem_ctrl.dram.rank1.pwrStateTime::REF    535860000                       # Time in different power states
system.mem_ctrl.dram.rank1.pwrStateTime::SREF            0                       # Time in different power states
system.mem_ctrl.dram.rank1.pwrStateTime::PRE_PDN            0                       # Time in different power states
system.mem_ctrl.dram.rank1.pwrStateTime::ACT   9566407500                       # Time in different power states
system.mem_ctrl.dram.rank1.pwrStateTime::ACT_PDN            0                       # Time in different power states
system.mem_ctrl.power_state.pwrStateResidencyTicks::UNDEFINED  16049503000                       # Cumulative time (in ticks) in various power states
system.membus.trans_dist::ReadResp             132034                       # Transaction distribution
system.membus.trans_dist::WritebackDirty        65819                       # Transaction distribution
system.membus.trans_dist::CleanEvict           130697                       # Transaction distribution
system.membus.trans_dist::ReadExReq             65750                       # Transaction distribution
system.membus.trans_dist::ReadExResp            65750                       # Transaction distribution
system.membus.trans_dist::ReadSharedReq        132034                       # Transaction distribution
system.membus.pkt_count_system.l2cache.mem_side_port::system.mem_ctrl.port       592084                       # Packet count per connected requestor and responder (bytes)
system.membus.pkt_count_system.l2cache.mem_side_port::total       592084                       # Packet count per connected requestor and responder (bytes)
system.membus.pkt_count::total                 592084                       # Packet count per connected requestor and responder (bytes)
system.membus.pkt_size_system.l2cache.mem_side_port::system.mem_ctrl.port     16870592                       # Cumulative packet size per connected requestor and responder (bytes)
system.membus.pkt_size_system.l2cache.mem_side_port::total     16870592                       # Cumulative packet size per connected requestor and responder (bytes)
system.membus.pkt_size::total                16870592                       # Cumulative packet size per connected requestor and responder (bytes)
system.membus.snoops                                0                       # Total snoops (count)
system.membus.snoopTraffic                          0                       # Total snoop traffic (bytes)
system.membus.snoop_fanout::samples            197784                       # Request fanout histogram
system.membus.snoop_fanout::mean                    0                       # Request fanout histogram
system.membus.snoop_fanout::stdev                   0                       # Request fanout histogram
system.membus.snoop_fanout::underflows              0      0.00%      0.00% # Request fanout histogram
system.membus.snoop_fanout::0                  197784    100.00%    100.00% # Request fanout histogram
system.membus.snoop_fanout::1                       0      0.00%    100.00% # Request fanout histogram
system.membus.snoop_fanout::overflows               0      0.00%    100.00% # Request fanout histogram
system.membus.snoop_fanout::min_value               0                       # Request fanout histogram
system.membus.snoop_fanout::max_value               0                       # Request fanout histogram
system.membus.snoop_fanout::total              197784                       # Request fanout histogram
system.membus.power_state.pwrStateResidencyTicks::UNDEFINED  16049503000                       # Cumulative time (in ticks) in various power states
system.membus.reqLayer2.occupancy           657576000                       # Layer occupancy (ticks)
system.membus.reqLayer2.utilization               4.1                       # Layer utilization (%)
system.membus.respLayer0.occupancy         1026125750                       # Layer occupancy (ticks)
system.membus.respLayer0.utilization              6.4                       # Layer utilization (%)

---------- End Simulation Statistics   ----------
