
---------- Begin Simulation Statistics ----------
final_tick                               2616676769000                       # Number of ticks from beginning of simulation (restored from checkpoints and never reset)
host_inst_rate                                 449803                       # Simulator instruction rate (inst/s)
host_mem_usage                                 665180                       # Number of bytes of host memory used
host_op_rate                                   764601                       # Simulator op (including micro ops) rate (op/s)
host_seconds                                  1279.35                       # Real time elapsed on the host
host_tick_rate                             2045320948                       # Simulator tick rate (ticks/s)
sim_freq                                 1000000000000                       # Frequency of simulated ticks
sim_insts                                   575454662                       # Number of instructions simulated
sim_ops                                     978190938                       # Number of ops (including micro ops) simulated
sim_seconds                                  2.616677                       # Number of seconds simulated
sim_ticks                                2616676769000                       # Number of ticks simulated
system.cpu.Branches                          31851453                       # Number of branches fetched
system.cpu.committedInsts                   575454662                       # Number of instructions committed
system.cpu.committedOps                     978190938                       # Number of ops (including micro ops) committed
system.cpu.idle_fraction                     0.000000                       # Percentage of idle cycles
system.cpu.not_idle_fraction                 1.000000                       # Percentage of non-idle cycles
system.cpu.numCycles                       2616676769                       # number of cpu cycles simulated
system.cpu.numWorkItemsCompleted                    0                       # number of work items this cpu completed
system.cpu.numWorkItemsStarted                      0                       # number of work items this cpu started
system.cpu.num_busy_cycles               2616676768.999000                       # Number of busy cycles
system.cpu.num_cc_register_reads            155141565                       # number of times the CC registers were read
system.cpu.num_cc_register_writes           162654620                       # number of times the CC registers were written
system.cpu.num_conditional_control_insts     29705130                       # number of instructions that are conditional controls
system.cpu.num_fp_alu_accesses              723696043                       # Number of float alu accesses
system.cpu.num_fp_insts                     723696043                       # number of float instructions
system.cpu.num_fp_register_reads           1022020909                       # number of times the floating registers were read
system.cpu.num_fp_register_writes           620017342                       # number of times the floating registers were written
system.cpu.num_func_calls                     1608984                       # number of times a function call or return occured
system.cpu.num_idle_cycles                   0.001000                       # Number of idle cycles
system.cpu.num_int_alu_accesses             539304693                       # Number of integer alu accesses
system.cpu.num_int_insts                    539304693                       # number of integer instructions
system.cpu.num_int_register_reads          1243037598                       # number of times the integer registers were read
system.cpu.num_int_register_writes          221683351                       # number of times the integer registers were written
system.cpu.num_load_insts                   187986147                       # Number of load instructions
system.cpu.num_mem_refs                     292192198                       # number of memory refs
system.cpu.num_store_insts                  104206051                       # Number of store instructions
system.cpu.num_vec_alu_accesses                     0                       # Number of vector alu accesses
system.cpu.num_vec_insts                            0                       # number of vector instructions
system.cpu.num_vec_register_reads                   0                       # number of times the vector registers were read
system.cpu.num_vec_register_writes                  0                       # number of times the vector registers were written
system.cpu.op_class::No_OpClass               1700260      0.17%      0.17% # Class of executed instruction
system.cpu.op_class::IntAlu                 388213719     39.69%     39.86% # Class of executed instruction
system.cpu.op_class::IntMult                  1511480      0.15%     40.02% # Class of executed instruction
system.cpu.op_class::IntDiv                    141309      0.01%     40.03% # Class of executed instruction
system.cpu.op_class::FloatAdd                81130357      8.29%     48.32% # Class of executed instruction
system.cpu.op_class::FloatCmp                       0      0.00%     48.32% # Class of executed instruction
system.cpu.op_class::FloatCvt                       0      0.00%     48.32% # Class of executed instruction
system.cpu.op_class::FloatMult                      0      0.00%     48.32% # Class of executed instruction
system.cpu.op_class::FloatMultAcc                   0      0.00%     48.32% # Class of executed instruction
system.cpu.op_class::FloatDiv                       0      0.00%     48.32% # Class of executed instruction
system.cpu.op_class::FloatMisc                      0      0.00%     48.32% # Class of executed instruction
system.cpu.op_class::FloatSqrt                      0      0.00%     48.32% # Class of executed instruction
system.cpu.op_class::SimdAdd                   491562      0.05%     48.37% # Class of executed instruction
system.cpu.op_class::SimdAddAcc                     0      0.00%     48.37% # Class of executed instruction
system.cpu.op_class::SimdAlu                  2949683      0.30%     48.68% # Class of executed instruction
system.cpu.op_class::SimdCmp                       18      0.00%     48.68% # Class of executed instruction
system.cpu.op_class::SimdCvt                      816      0.00%     48.68% # Class of executed instruction
system.cpu.op_class::SimdMisc                 2637173      0.27%     48.95% # Class of executed instruction
system.cpu.op_class::SimdMult                  245760      0.03%     48.97% # Class of executed instruction
system.cpu.op_class::SimdMultAcc                    0      0.00%     48.97% # Class of executed instruction
system.cpu.op_class::SimdShift                 368643      0.04%     49.01% # Class of executed instruction
system.cpu.op_class::SimdShiftAcc                   0      0.00%     49.01% # Class of executed instruction
system.cpu.op_class::SimdDiv                        0      0.00%     49.01% # Class of executed instruction
system.cpu.op_class::SimdSqrt                       0      0.00%     49.01% # Class of executed instruction
system.cpu.op_class::SimdFloatAdd           119030165     12.17%     61.18% # Class of executed instruction
system.cpu.op_class::SimdFloatAlu                   0      0.00%     61.18% # Class of executed instruction
system.cpu.op_class::SimdFloatCmp                   0      0.00%     61.18% # Class of executed instruction
system.cpu.op_class::SimdFloatCvt             1852644      0.19%     61.37% # Class of executed instruction
system.cpu.op_class::SimdFloatDiv                  70      0.00%     61.37% # Class of executed instruction
system.cpu.op_class::SimdFloatMisc                  0      0.00%     61.37% # Class of executed instruction
system.cpu.op_class::SimdFloatMult           85725170      8.76%     70.13% # Class of executed instruction
system.cpu.op_class::SimdFloatMultAcc               0      0.00%     70.13% # Class of executed instruction
system.cpu.op_class::SimdFloatSqrt                  6      0.00%     70.13% # Class of executed instruction
system.cpu.op_class::SimdReduceAdd                  0      0.00%     70.13% # Class of executed instruction
system.cpu.op_class::SimdReduceAlu                  0      0.00%     70.13% # Class of executed instruction
system.cpu.op_class::SimdReduceCmp                  0      0.00%     70.13% # Class of executed instruction
system.cpu.op_class::SimdFloatReduceAdd             0      0.00%     70.13% # Class of executed instruction
system.cpu.op_class::SimdFloatReduceCmp             0      0.00%     70.13% # Class of executed instruction
system.cpu.op_class::SimdAes                        0      0.00%     70.13% # Class of executed instruction
system.cpu.op_class::SimdAesMix                     0      0.00%     70.13% # Class of executed instruction
system.cpu.op_class::SimdSha1Hash                   0      0.00%     70.13% # Class of executed instruction
system.cpu.op_class::SimdSha1Hash2                  0      0.00%     70.13% # Class of executed instruction
system.cpu.op_class::SimdSha256Hash                 0      0.00%     70.13% # Class of executed instruction
system.cpu.op_class::SimdSha256Hash2                0      0.00%     70.13% # Class of executed instruction
system.cpu.op_class::SimdShaSigma2                  0      0.00%     70.13% # Class of executed instruction
system.cpu.op_class::SimdShaSigma3                  0      0.00%     70.13% # Class of executed instruction
system.cpu.op_class::SimdPredAlu                    0      0.00%     70.13% # Class of executed instruction
system.cpu.op_class::MemRead                  5927086      0.61%     70.74% # Class of executed instruction
system.cpu.op_class::MemWrite                 1856495      0.19%     70.93% # Class of executed instruction
system.cpu.op_class::FloatMemRead           182059061     18.61%     89.54% # Class of executed instruction
system.cpu.op_class::FloatMemWrite          102349556     10.46%    100.00% # Class of executed instruction
system.cpu.op_class::IprAccess                      0      0.00%    100.00% # Class of executed instruction
system.cpu.op_class::InstPrefetch                   0      0.00%    100.00% # Class of executed instruction
system.cpu.op_class::total                  978191033                       # Class of executed instruction
system.cpu.workload.numSyscalls                    72                       # Number of system calls
system.l2bus.snoop_filter.hit_multi_requests            0                       # Number of requests hitting in the snoop filter with multiple (>1) holders of the requested data.
system.l2bus.snoop_filter.hit_multi_snoops            0                       # Number of snoops hitting in the snoop filter with multiple (>1) holders of the requested data.
system.l2bus.snoop_filter.hit_single_requests      7979967                       # Number of requests hitting in the snoop filter with a single holder of the requested data.
system.l2bus.snoop_filter.hit_single_snoops        49537                       # Number of snoops hitting in the snoop filter with a single holder of the requested data.
system.l2bus.snoop_filter.tot_requests       15961214                       # Total number of requests made to the snoop filter.
system.l2bus.snoop_filter.tot_snoops            49537                       # Total number of snoops made to the snoop filter.
system.membus.snoop_filter.hit_multi_requests            0                       # Number of requests hitting in the snoop filter with multiple (>1) holders of the requested data.
system.membus.snoop_filter.hit_multi_snoops            0                       # Number of snoops hitting in the snoop filter with multiple (>1) holders of the requested data.
system.membus.snoop_filter.hit_single_requests      2913073                       # Number of requests hitting in the snoop filter with a single holder of the requested data.
system.membus.snoop_filter.hit_single_snoops            0                       # Number of snoops hitting in the snoop filter with a single holder of the requested data.
system.membus.snoop_filter.tot_requests       5834366                       # Total number of requests made to the snoop filter.
system.membus.snoop_filter.tot_snoops               0                       # Total number of snoops made to the snoop filter.
system.clk_domain.clock                          1000                       # Clock period in ticks
system.clk_domain.voltage_domain.voltage            1                       # Voltage in Volts
system.cpu.dcache.demand_hits::.cpu.data    284222130                       # number of demand (read+write) hits
system.cpu.dcache.demand_hits::total        284222130                       # number of demand (read+write) hits
system.cpu.dcache.overall_hits::.cpu.data    284222130                       # number of overall hits
system.cpu.dcache.overall_hits::total       284222130                       # number of overall hits
system.cpu.dcache.demand_misses::.cpu.data      7970134                       # number of demand (read+write) misses
system.cpu.dcache.demand_misses::total        7970134                       # number of demand (read+write) misses
system.cpu.dcache.overall_misses::.cpu.data      7970134                       # number of overall misses
system.cpu.dcache.overall_misses::total       7970134                       # number of overall misses
system.cpu.dcache.demand_miss_latency::.cpu.data 435825953000                       # number of demand (read+write) miss cycles
system.cpu.dcache.demand_miss_latency::total 435825953000                       # number of demand (read+write) miss cycles
system.cpu.dcache.overall_miss_latency::.cpu.data 435825953000                       # number of overall miss cycles
system.cpu.dcache.overall_miss_latency::total 435825953000                       # number of overall miss cycles
system.cpu.dcache.demand_accesses::.cpu.data    292192264                       # number of demand (read+write) accesses
system.cpu.dcache.demand_accesses::total    292192264                       # number of demand (read+write) accesses
system.cpu.dcache.overall_accesses::.cpu.data    292192264                       # number of overall (read+write) accesses
system.cpu.dcache.overall_accesses::total    292192264                       # number of overall (read+write) accesses
system.cpu.dcache.demand_miss_rate::.cpu.data     0.027277                       # miss rate for demand accesses
system.cpu.dcache.demand_miss_rate::total     0.027277                       # miss rate for demand accesses
system.cpu.dcache.overall_miss_rate::.cpu.data     0.027277                       # miss rate for overall accesses
system.cpu.dcache.overall_miss_rate::total     0.027277                       # miss rate for overall accesses
system.cpu.dcache.demand_avg_miss_latency::.cpu.data 54682.387147                       # average overall miss latency
system.cpu.dcache.demand_avg_miss_latency::total 54682.387147                       # average overall miss latency
system.cpu.dcache.overall_avg_miss_latency::.cpu.data 54682.387147                       # average overall miss latency
system.cpu.dcache.overall_avg_miss_latency::total 54682.387147                       # average overall miss latency
system.cpu.dcache.blocked_cycles::no_mshrs            0                       # number of cycles access was blocked
system.cpu.dcache.blocked_cycles::no_targets            0                       # number of cycles access was blocked
system.cpu.dcache.blocked::no_mshrs                 0                       # number of cycles access was blocked
system.cpu.dcache.blocked::no_targets               0                       # number of cycles access was blocked
system.cpu.dcache.avg_blocked_cycles::no_mshrs          nan                       # average number of cycles each access was blocked
system.cpu.dcache.avg_blocked_cycles::no_targets          nan                       # average number of cycles each access was blocked
system.cpu.dcache.writebacks::.writebacks      6544458                       # number of writebacks
system.cpu.dcache.writebacks::total           6544458                       # number of writebacks
system.cpu.dcache.demand_mshr_misses::.cpu.data      7970134                       # number of demand (read+write) MSHR misses
system.cpu.dcache.demand_mshr_misses::total      7970134                       # number of demand (read+write) MSHR misses
system.cpu.dcache.overall_mshr_misses::.cpu.data      7970134                       # number of overall MSHR misses
system.cpu.dcache.overall_mshr_misses::total      7970134                       # number of overall MSHR misses
system.cpu.dcache.demand_mshr_miss_latency::.cpu.data 419885685000                       # number of demand (read+write) MSHR miss cycles
system.cpu.dcache.demand_mshr_miss_latency::total 419885685000                       # number of demand (read+write) MSHR miss cycles
system.cpu.dcache.overall_mshr_miss_latency::.cpu.data 419885685000                       # number of overall MSHR miss cycles
system.cpu.dcache.overall_mshr_miss_latency::total 419885685000                       # number of overall MSHR miss cycles
system.cpu.dcache.demand_mshr_miss_rate::.cpu.data     0.027277                       # mshr miss rate for demand accesses
system.cpu.dcache.demand_mshr_miss_rate::total     0.027277                       # mshr miss rate for demand accesses
system.cpu.dcache.overall_mshr_miss_rate::.cpu.data     0.027277                       # mshr miss rate for overall accesses
system.cpu.dcache.overall_mshr_miss_rate::total     0.027277                       # mshr miss rate for overall accesses
system.cpu.dcache.demand_avg_mshr_miss_latency::.cpu.data 52682.387147                       # average overall mshr miss latency
system.cpu.dcache.demand_avg_mshr_miss_latency::total 52682.387147                       # average overall mshr miss latency
system.cpu.dcache.overall_avg_mshr_miss_latency::.cpu.data 52682.387147                       # average overall mshr miss latency
system.cpu.dcache.overall_avg_mshr_miss_latency::total 52682.387147                       # average overall mshr miss latency
system.cpu.dcache.replacements                7969110                       # number of replacements
system.cpu.dcache.ReadReq_hits::.cpu.data    184112550                       # number of ReadReq hits
system.cpu.dcache.ReadReq_hits::total       184112550                       # number of ReadReq hits
system.cpu.dcache.ReadReq_misses::.cpu.data      3873643                       # number of ReadReq misses
system.cpu.dcache.ReadReq_misses::total       3873643                       # number of ReadReq misses
system.cpu.dcache.ReadReq_miss_latency::.cpu.data 272442418000                       # number of ReadReq miss cycles
system.cpu.dcache.ReadReq_miss_latency::total 272442418000                       # number of ReadReq miss cycles
system.cpu.dcache.ReadReq_accesses::.cpu.data    187986193                       # number of ReadReq accesses(hits+misses)
system.cpu.dcache.ReadReq_accesses::total    187986193                       # number of ReadReq accesses(hits+misses)
system.cpu.dcache.ReadReq_miss_rate::.cpu.data     0.020606                       # miss rate for ReadReq accesses
system.cpu.dcache.ReadReq_miss_rate::total     0.020606                       # miss rate for ReadReq accesses
system.cpu.dcache.ReadReq_avg_miss_latency::.cpu.data 70332.350710                       # average ReadReq miss latency
system.cpu.dcache.ReadReq_avg_miss_latency::total 70332.350710                       # average ReadReq miss latency
system.cpu.dcache.ReadReq_mshr_misses::.cpu.data      3873643                       # number of ReadReq MSHR misses
system.cpu.dcache.ReadReq_mshr_misses::total      3873643                       # number of ReadReq MSHR misses
system.cpu.dcache.ReadReq_mshr_miss_latency::.cpu.data 264695132000                       # number of ReadReq MSHR miss cycles
system.cpu.dcache.ReadReq_mshr_miss_latency::total 264695132000                       # number of ReadReq MSHR miss cycles
system.cpu.dcache.ReadReq_mshr_miss_rate::.cpu.data     0.020606                       # mshr miss rate for ReadReq accesses
system.cpu.dcache.ReadReq_mshr_miss_rate::total     0.020606                       # mshr miss rate for ReadReq accesses
system.cpu.dcache.ReadReq_avg_mshr_miss_latency::.cpu.data 68332.350710                       # average ReadReq mshr miss latency
system.cpu.dcache.ReadReq_avg_mshr_miss_latency::total 68332.350710                       # average ReadReq mshr miss latency
system.cpu.dcache.WriteReq_hits::.cpu.data    100109580                       # number of WriteReq hits
system.cpu.dcache.WriteReq_hits::total      100109580                       # number of WriteReq hits
system.cpu.dcache.WriteReq_misses::.cpu.data      4096491                       # number of WriteReq misses
system.cpu.dcache.WriteReq_misses::total      4096491                       # number of WriteReq misses
system.cpu.dcache.WriteReq_miss_latency::.cpu.data 163383535000                       # number of WriteReq miss cycles
system.cpu.dcache.WriteReq_miss_latency::total 163383535000                       # number of WriteReq miss cycles
system.cpu.dcache.WriteReq_accesses::.cpu.data    104206071                       # number of WriteReq accesses(hits+misses)
system.cpu.dcache.WriteReq_accesses::total    104206071                       # number of WriteReq accesses(hits+misses)
system.cpu.dcache.WriteReq_miss_rate::.cpu.data     0.039311                       # miss rate for WriteReq accesses
system.cpu.dcache.WriteReq_miss_rate::total     0.039311                       # miss rate for WriteReq accesses
system.cpu.dcache.WriteReq_avg_miss_latency::.cpu.data 39883.777360                       # average WriteReq miss latency
system.cpu.dcache.WriteReq_avg_miss_latency::total 39883.777360                       # average WriteReq miss latency
system.cpu.dcache.WriteReq_mshr_misses::.cpu.data      4096491                       # number of WriteReq MSHR misses
system.cpu.dcache.WriteReq_mshr_misses::total      4096491                       # number of WriteReq MSHR misses
system.cpu.dcache.WriteReq_mshr_miss_latency::.cpu.data 155190553000                       # number of WriteReq MSHR miss cycles
system.cpu.dcache.WriteReq_mshr_miss_latency::total 155190553000                       # number of WriteReq MSHR miss cycles
system.cpu.dcache.WriteReq_mshr_miss_rate::.cpu.data     0.039311                       # mshr miss rate for WriteReq accesses
system.cpu.dcache.WriteReq_mshr_miss_rate::total     0.039311                       # mshr miss rate for WriteReq accesses
system.cpu.dcache.WriteReq_avg_mshr_miss_latency::.cpu.data 37883.777360                       # average WriteReq mshr miss latency
system.cpu.dcache.WriteReq_avg_mshr_miss_latency::total 37883.777360                       # average WriteReq mshr miss latency
system.cpu.dcache.power_state.pwrStateResidencyTicks::UNDEFINED 2616676769000                       # Cumulative time (in ticks) in various power states
system.cpu.dcache.tags.tagsinuse          1023.902298                       # Cycle average of tags in use
system.cpu.dcache.tags.total_refs           292192264                       # Total number of references to valid blocks.
system.cpu.dcache.tags.sampled_refs           7970134                       # Sample count of references to valid blocks.
system.cpu.dcache.tags.avg_refs             36.660897                       # Average number of references to valid blocks.
system.cpu.dcache.tags.warmup_cycle            224000                       # Cycle when the warmup percentage was hit.
system.cpu.dcache.tags.occ_blocks::.cpu.data  1023.902298                       # Average occupied blocks per requestor
system.cpu.dcache.tags.occ_percent::.cpu.data     0.999905                       # Average percentage of cache occupancy
system.cpu.dcache.tags.occ_percent::total     0.999905                       # Average percentage of cache occupancy
system.cpu.dcache.tags.occ_task_id_blocks::1024         1024                       # Occupied blocks per task id
system.cpu.dcache.tags.age_task_id_blocks_1024::0           26                       # Occupied blocks per task id
system.cpu.dcache.tags.age_task_id_blocks_1024::1           95                       # Occupied blocks per task id
system.cpu.dcache.tags.age_task_id_blocks_1024::2          864                       # Occupied blocks per task id
system.cpu.dcache.tags.age_task_id_blocks_1024::3           28                       # Occupied blocks per task id
system.cpu.dcache.tags.age_task_id_blocks_1024::4           11                       # Occupied blocks per task id
system.cpu.dcache.tags.occ_task_id_percent::1024            1                       # Percentage of cache occupancy per task id
system.cpu.dcache.tags.tag_accesses         592354662                       # Number of tag accesses
system.cpu.dcache.tags.data_accesses        592354662                       # Number of data accesses
system.cpu.dcache.tags.power_state.pwrStateResidencyTicks::UNDEFINED 2616676769000                       # Cumulative time (in ticks) in various power states
system.cpu.dtb.rdAccesses                   187986194                       # TLB accesses on read requests
system.cpu.dtb.wrAccesses                   104206093                       # TLB accesses on write requests
system.cpu.dtb.rdMisses                        108733                       # TLB misses on read requests
system.cpu.dtb.wrMisses                         99901                       # TLB misses on write requests
system.cpu.dtb.walker.power_state.pwrStateResidencyTicks::UNDEFINED 2616676769000                       # Cumulative time (in ticks) in various power states
system.cpu.icache.demand_hits::.cpu.inst    805853268                       # number of demand (read+write) hits
system.cpu.icache.demand_hits::total        805853268                       # number of demand (read+write) hits
system.cpu.icache.overall_hits::.cpu.inst    805853268                       # number of overall hits
system.cpu.icache.overall_hits::total       805853268                       # number of overall hits
system.cpu.icache.demand_misses::.cpu.inst        11113                       # number of demand (read+write) misses
system.cpu.icache.demand_misses::total          11113                       # number of demand (read+write) misses
system.cpu.icache.overall_misses::.cpu.inst        11113                       # number of overall misses
system.cpu.icache.overall_misses::total         11113                       # number of overall misses
system.cpu.icache.demand_miss_latency::.cpu.inst    700686000                       # number of demand (read+write) miss cycles
system.cpu.icache.demand_miss_latency::total    700686000                       # number of demand (read+write) miss cycles
system.cpu.icache.overall_miss_latency::.cpu.inst    700686000                       # number of overall miss cycles
system.cpu.icache.overall_miss_latency::total    700686000                       # number of overall miss cycles
system.cpu.icache.demand_accesses::.cpu.inst    805864381                       # number of demand (read+write) accesses
system.cpu.icache.demand_accesses::total    805864381                       # number of demand (read+write) accesses
system.cpu.icache.overall_accesses::.cpu.inst    805864381                       # number of overall (read+write) accesses
system.cpu.icache.overall_accesses::total    805864381                       # number of overall (read+write) accesses
system.cpu.icache.demand_miss_rate::.cpu.inst     0.000014                       # miss rate for demand accesses
system.cpu.icache.demand_miss_rate::total     0.000014                       # miss rate for demand accesses
system.cpu.icache.overall_miss_rate::.cpu.inst     0.000014                       # miss rate for overall accesses
system.cpu.icache.overall_miss_rate::total     0.000014                       # miss rate for overall accesses
system.cpu.icache.demand_avg_miss_latency::.cpu.inst 63051.021326                       # average overall miss latency
system.cpu.icache.demand_avg_miss_latency::total 63051.021326                       # average overall miss latency
system.cpu.icache.overall_avg_miss_latency::.cpu.inst 63051.021326                       # average overall miss latency
system.cpu.icache.overall_avg_miss_latency::total 63051.021326                       # average overall miss latency
system.cpu.icache.blocked_cycles::no_mshrs            0                       # number of cycles access was blocked
system.cpu.icache.blocked_cycles::no_targets            0                       # number of cycles access was blocked
system.cpu.icache.blocked::no_mshrs                 0                       # number of cycles access was blocked
system.cpu.icache.blocked::no_targets               0                       # number of cycles access was blocked
system.cpu.icache.avg_blocked_cycles::no_mshrs          nan                       # average number of cycles each access was blocked
system.cpu.icache.avg_blocked_cycles::no_targets          nan                       # average number of cycles each access was blocked
system.cpu.icache.demand_mshr_misses::.cpu.inst        11113                       # number of demand (read+write) MSHR misses
system.cpu.icache.demand_mshr_misses::total        11113                       # number of demand (read+write) MSHR misses
system.cpu.icache.overall_mshr_misses::.cpu.inst        11113                       # number of overall MSHR misses
system.cpu.icache.overall_mshr_misses::total        11113                       # number of overall MSHR misses
system.cpu.icache.demand_mshr_miss_latency::.cpu.inst    678460000                       # number of demand (read+write) MSHR miss cycles
system.cpu.icache.demand_mshr_miss_latency::total    678460000                       # number of demand (read+write) MSHR miss cycles
system.cpu.icache.overall_mshr_miss_latency::.cpu.inst    678460000                       # number of overall MSHR miss cycles
system.cpu.icache.overall_mshr_miss_latency::total    678460000                       # number of overall MSHR miss cycles
system.cpu.icache.demand_mshr_miss_rate::.cpu.inst     0.000014                       # mshr miss rate for demand accesses
system.cpu.icache.demand_mshr_miss_rate::total     0.000014                       # mshr miss rate for demand accesses
system.cpu.icache.overall_mshr_miss_rate::.cpu.inst     0.000014                       # mshr miss rate for overall accesses
system.cpu.icache.overall_mshr_miss_rate::total     0.000014                       # mshr miss rate for overall accesses
system.cpu.icache.demand_avg_mshr_miss_latency::.cpu.inst 61051.021326                       # average overall mshr miss latency
system.cpu.icache.demand_avg_mshr_miss_latency::total 61051.021326                       # average overall mshr miss latency
system.cpu.icache.overall_avg_mshr_miss_latency::.cpu.inst 61051.021326                       # average overall mshr miss latency
system.cpu.icache.overall_avg_mshr_miss_latency::total 61051.021326                       # average overall mshr miss latency
system.cpu.icache.replacements                  10857                       # number of replacements
system.cpu.icache.ReadReq_hits::.cpu.inst    805853268                       # number of ReadReq hits
system.cpu.icache.ReadReq_hits::total       805853268                       # number of ReadReq hits
system.cpu.icache.ReadReq_misses::.cpu.inst        11113                       # number of ReadReq misses
system.cpu.icache.ReadReq_misses::total         11113                       # number of ReadReq misses
system.cpu.icache.ReadReq_miss_latency::.cpu.inst    700686000                       # number of ReadReq miss cycles
system.cpu.icache.ReadReq_miss_latency::total    700686000                       # number of ReadReq miss cycles
system.cpu.icache.ReadReq_accesses::.cpu.inst    805864381                       # number of ReadReq accesses(hits+misses)
system.cpu.icache.ReadReq_accesses::total    805864381                       # number of ReadReq accesses(hits+misses)
system.cpu.icache.ReadReq_miss_rate::.cpu.inst     0.000014                       # miss rate for ReadReq accesses
system.cpu.icache.ReadReq_miss_rate::total     0.000014                       # miss rate for ReadReq accesses
system.cpu.icache.ReadReq_avg_miss_latency::.cpu.inst 63051.021326                       # average ReadReq miss latency
system.cpu.icache.ReadReq_avg_miss_latency::total 63051.021326                       # average ReadReq miss latency
system.cpu.icache.ReadReq_mshr_misses::.cpu.inst        11113                       # number of ReadReq MSHR misses
system.cpu.icache.ReadReq_mshr_misses::total        11113                       # number of ReadReq MSHR misses
system.cpu.icache.ReadReq_mshr_miss_latency::.cpu.inst    678460000                       # number of ReadReq MSHR miss cycles
system.cpu.icache.ReadReq_mshr_miss_latency::total    678460000                       # number of ReadReq MSHR miss cycles
system.cpu.icache.ReadReq_mshr_miss_rate::.cpu.inst     0.000014                       # mshr miss rate for ReadReq accesses
system.cpu.icache.ReadReq_mshr_miss_rate::total     0.000014                       # mshr miss rate for ReadReq accesses
system.cpu.icache.ReadReq_avg_mshr_miss_latency::.cpu.inst 61051.021326                       # average ReadReq mshr miss latency
system.cpu.icache.ReadReq_avg_mshr_miss_latency::total 61051.021326                       # average ReadReq mshr miss latency
system.cpu.icache.power_state.pwrStateResidencyTicks::UNDEFINED 2616676769000                       # Cumulative time (in ticks) in various power states
system.cpu.icache.tags.tagsinuse           255.995147                       # Cycle average of tags in use
system.cpu.icache.tags.total_refs           805864381                       # Total number of references to valid blocks.
system.cpu.icache.tags.sampled_refs             11113                       # Sample count of references to valid blocks.
system.cpu.icache.tags.avg_refs          72515.466661                       # Average number of references to valid blocks.
system.cpu.icache.tags.warmup_cycle            107000                       # Cycle when the warmup percentage was hit.
system.cpu.icache.tags.occ_blocks::.cpu.inst   255.995147                       # Average occupied blocks per requestor
system.cpu.icache.tags.occ_percent::.cpu.inst     0.999981                       # Average percentage of cache occupancy
system.cpu.icache.tags.occ_percent::total     0.999981                       # Average percentage of cache occupancy
system.cpu.icache.tags.occ_task_id_blocks::1024          256                       # Occupied blocks per task id
system.cpu.icache.tags.age_task_id_blocks_1024::0           39                       # Occupied blocks per task id
system.cpu.icache.tags.age_task_id_blocks_1024::1          104                       # Occupied blocks per task id
system.cpu.icache.tags.age_task_id_blocks_1024::2          111                       # Occupied blocks per task id
system.cpu.icache.tags.age_task_id_blocks_1024::4            2                       # Occupied blocks per task id
system.cpu.icache.tags.occ_task_id_percent::1024            1                       # Percentage of cache occupancy per task id
system.cpu.icache.tags.tag_accesses        1611739875                       # Number of tag accesses
system.cpu.icache.tags.data_accesses       1611739875                       # Number of data accesses
system.cpu.icache.tags.power_state.pwrStateResidencyTicks::UNDEFINED 2616676769000                       # Cumulative time (in ticks) in various power states
system.cpu.interrupts.clk_domain.clock          16000                       # Clock period in ticks
system.cpu.itb.rdAccesses                           0                       # TLB accesses on read requests
system.cpu.itb.wrAccesses                   805864381                       # TLB accesses on write requests
system.cpu.itb.rdMisses                             0                       # TLB misses on read requests
system.cpu.itb.wrMisses                           111                       # TLB misses on write requests
system.cpu.itb.walker.power_state.pwrStateResidencyTicks::UNDEFINED 2616676769000                       # Cumulative time (in ticks) in various power states
system.cpu.power_state.pwrStateResidencyTicks::ON 2616676769000                       # Cumulative time (in ticks) in various power states
system.cpu.thread_0.numInsts                        0                       # Number of Instructions committed
system.cpu.thread_0.numOps                          0                       # Number of Ops committed
system.cpu.thread_0.numMemRefs                      0                       # Number of Memory References
system.l2bus.trans_dist::ReadResp             3884756                       # Transaction distribution
system.l2bus.trans_dist::WritebackDirty       9110253                       # Transaction distribution
system.l2bus.trans_dist::CleanEvict           1817580                       # Transaction distribution
system.l2bus.trans_dist::ReadExReq            4096491                       # Transaction distribution
system.l2bus.trans_dist::ReadExResp           4096491                       # Transaction distribution
system.l2bus.trans_dist::ReadSharedReq        3884756                       # Transaction distribution
system.l2bus.pkt_count_system.cpu.icache.mem_side_port::system.l2cache.cpu_side_port        33083                       # Packet count per connected requestor and responder (bytes)
system.l2bus.pkt_count_system.cpu.dcache.mem_side_port::system.l2cache.cpu_side_port     23909378                       # Packet count per connected requestor and responder (bytes)
system.l2bus.pkt_count::total                23942461                       # Packet count per connected requestor and responder (bytes)
system.l2bus.pkt_size_system.cpu.icache.mem_side_port::system.l2cache.cpu_side_port       711232                       # Cumulative packet size per connected requestor and responder (bytes)
system.l2bus.pkt_size_system.cpu.dcache.mem_side_port::system.l2cache.cpu_side_port    928933888                       # Cumulative packet size per connected requestor and responder (bytes)
system.l2bus.pkt_size::total                929645120                       # Cumulative packet size per connected requestor and responder (bytes)
system.l2bus.snoops                           2947866                       # Total snoops (count)
system.l2bus.snoopTraffic                   164210880                       # Total snoop traffic (bytes)
system.l2bus.snoop_fanout::samples           10929113                       # Request fanout histogram
system.l2bus.snoop_fanout::mean              0.004533                       # Request fanout histogram
system.l2bus.snoop_fanout::stdev             0.067172                       # Request fanout histogram
system.l2bus.snoop_fanout::underflows               0      0.00%      0.00% # Request fanout histogram
system.l2bus.snoop_fanout::0                 10879576     99.55%     99.55% # Request fanout histogram
system.l2bus.snoop_fanout::1                    49537      0.45%    100.00% # Request fanout histogram
system.l2bus.snoop_fanout::2                        0      0.00%    100.00% # Request fanout histogram
system.l2bus.snoop_fanout::overflows                0      0.00%    100.00% # Request fanout histogram
system.l2bus.snoop_fanout::min_value                0                       # Request fanout histogram
system.l2bus.snoop_fanout::max_value                1                       # Request fanout histogram
system.l2bus.snoop_fanout::total             10929113                       # Request fanout histogram
system.l2bus.power_state.pwrStateResidencyTicks::UNDEFINED 2616676769000                       # Cumulative time (in ticks) in various power states
system.l2bus.reqLayer0.occupancy          29050130000                       # Layer occupancy (ticks)
system.l2bus.reqLayer0.utilization                1.1                       # Layer utilization (%)
system.l2bus.respLayer0.occupancy            33339000                       # Layer occupancy (ticks)
system.l2bus.respLayer0.utilization               0.0                       # Layer utilization (%)
system.l2bus.respLayer1.occupancy         23910402000                       # Layer occupancy (ticks)
system.l2bus.respLayer1.utilization               0.9                       # Layer utilization (%)
system.l2cache.demand_hits::.cpu.inst            6006                       # number of demand (read+write) hits
system.l2cache.demand_hits::.cpu.data         5053948                       # number of demand (read+write) hits
system.l2cache.demand_hits::total             5059954                       # number of demand (read+write) hits
system.l2cache.overall_hits::.cpu.inst           6006                       # number of overall hits
system.l2cache.overall_hits::.cpu.data        5053948                       # number of overall hits
system.l2cache.overall_hits::total            5059954                       # number of overall hits
system.l2cache.demand_misses::.cpu.inst          5107                       # number of demand (read+write) misses
system.l2cache.demand_misses::.cpu.data       2916186                       # number of demand (read+write) misses
system.l2cache.demand_misses::total           2921293                       # number of demand (read+write) misses
system.l2cache.overall_misses::.cpu.inst         5107                       # number of overall misses
system.l2cache.overall_misses::.cpu.data      2916186                       # number of overall misses
system.l2cache.overall_misses::total          2921293                       # number of overall misses
system.l2cache.demand_miss_latency::.cpu.inst    518880000                       # number of demand (read+write) miss cycles
system.l2cache.demand_miss_latency::.cpu.data 289824221000                       # number of demand (read+write) miss cycles
system.l2cache.demand_miss_latency::total 290343101000                       # number of demand (read+write) miss cycles
system.l2cache.overall_miss_latency::.cpu.inst    518880000                       # number of overall miss cycles
system.l2cache.overall_miss_latency::.cpu.data 289824221000                       # number of overall miss cycles
system.l2cache.overall_miss_latency::total 290343101000                       # number of overall miss cycles
system.l2cache.demand_accesses::.cpu.inst        11113                       # number of demand (read+write) accesses
system.l2cache.demand_accesses::.cpu.data      7970134                       # number of demand (read+write) accesses
system.l2cache.demand_accesses::total         7981247                       # number of demand (read+write) accesses
system.l2cache.overall_accesses::.cpu.inst        11113                       # number of overall (read+write) accesses
system.l2cache.overall_accesses::.cpu.data      7970134                       # number of overall (read+write) accesses
system.l2cache.overall_accesses::total        7981247                       # number of overall (read+write) accesses
system.l2cache.demand_miss_rate::.cpu.inst     0.459552                       # miss rate for demand accesses
system.l2cache.demand_miss_rate::.cpu.data     0.365889                       # miss rate for demand accesses
system.l2cache.demand_miss_rate::total       0.366020                       # miss rate for demand accesses
system.l2cache.overall_miss_rate::.cpu.inst     0.459552                       # miss rate for overall accesses
system.l2cache.overall_miss_rate::.cpu.data     0.365889                       # miss rate for overall accesses
system.l2cache.overall_miss_rate::total      0.366020                       # miss rate for overall accesses
system.l2cache.demand_avg_miss_latency::.cpu.inst 101601.723125                       # average overall miss latency
system.l2cache.demand_avg_miss_latency::.cpu.data 99384.682939                       # average overall miss latency
system.l2cache.demand_avg_miss_latency::total 99388.558765                       # average overall miss latency
system.l2cache.overall_avg_miss_latency::.cpu.inst 101601.723125                       # average overall miss latency
system.l2cache.overall_avg_miss_latency::.cpu.data 99384.682939                       # average overall miss latency
system.l2cache.overall_avg_miss_latency::total 99388.558765                       # average overall miss latency
system.l2cache.blocked_cycles::no_mshrs             0                       # number of cycles access was blocked
system.l2cache.blocked_cycles::no_targets            0                       # number of cycles access was blocked
system.l2cache.blocked::no_mshrs                    0                       # number of cycles access was blocked
system.l2cache.blocked::no_targets                  0                       # number of cycles access was blocked
system.l2cache.avg_blocked_cycles::no_mshrs          nan                       # average number of cycles each access was blocked
system.l2cache.avg_blocked_cycles::no_targets          nan                       # average number of cycles each access was blocked
system.l2cache.writebacks::.writebacks        2565795                       # number of writebacks
system.l2cache.writebacks::total              2565795                       # number of writebacks
system.l2cache.demand_mshr_misses::.cpu.inst         5107                       # number of demand (read+write) MSHR misses
system.l2cache.demand_mshr_misses::.cpu.data      2916186                       # number of demand (read+write) MSHR misses
system.l2cache.demand_mshr_misses::total      2921293                       # number of demand (read+write) MSHR misses
system.l2cache.overall_mshr_misses::.cpu.inst         5107                       # number of overall MSHR misses
system.l2cache.overall_mshr_misses::.cpu.data      2916186                       # number of overall MSHR misses
system.l2cache.overall_mshr_misses::total      2921293                       # number of overall MSHR misses
system.l2cache.demand_mshr_miss_latency::.cpu.inst    416740000                       # number of demand (read+write) MSHR miss cycles
system.l2cache.demand_mshr_miss_latency::.cpu.data 231500501000                       # number of demand (read+write) MSHR miss cycles
system.l2cache.demand_mshr_miss_latency::total 231917241000                       # number of demand (read+write) MSHR miss cycles
system.l2cache.overall_mshr_miss_latency::.cpu.inst    416740000                       # number of overall MSHR miss cycles
system.l2cache.overall_mshr_miss_latency::.cpu.data 231500501000                       # number of overall MSHR miss cycles
system.l2cache.overall_mshr_miss_latency::total 231917241000                       # number of overall MSHR miss cycles
system.l2cache.demand_mshr_miss_rate::.cpu.inst     0.459552                       # mshr miss rate for demand accesses
system.l2cache.demand_mshr_miss_rate::.cpu.data     0.365889                       # mshr miss rate for demand accesses
system.l2cache.demand_mshr_miss_rate::total     0.366020                       # mshr miss rate for demand accesses
system.l2cache.overall_mshr_miss_rate::.cpu.inst     0.459552                       # mshr miss rate for overall accesses
system.l2cache.overall_mshr_miss_rate::.cpu.data     0.365889                       # mshr miss rate for overall accesses
system.l2cache.overall_mshr_miss_rate::total     0.366020                       # mshr miss rate for overall accesses
system.l2cache.demand_avg_mshr_miss_latency::.cpu.inst 81601.723125                       # average overall mshr miss latency
system.l2cache.demand_avg_mshr_miss_latency::.cpu.data 79384.682939                       # average overall mshr miss latency
system.l2cache.demand_avg_mshr_miss_latency::total 79388.558765                       # average overall mshr miss latency
system.l2cache.overall_avg_mshr_miss_latency::.cpu.inst 81601.723125                       # average overall mshr miss latency
system.l2cache.overall_avg_mshr_miss_latency::.cpu.data 79384.682939                       # average overall mshr miss latency
system.l2cache.overall_avg_mshr_miss_latency::total 79388.558765                       # average overall mshr miss latency
system.l2cache.replacements                   2920724                       # number of replacements
system.l2cache.WritebackDirty_hits::.writebacks      6544100                       # number of WritebackDirty hits
system.l2cache.WritebackDirty_hits::total      6544100                       # number of WritebackDirty hits
system.l2cache.WritebackDirty_misses::.writebacks          358                       # number of WritebackDirty misses
system.l2cache.WritebackDirty_misses::total          358                       # number of WritebackDirty misses
system.l2cache.WritebackDirty_accesses::.writebacks      6544458                       # number of WritebackDirty accesses(hits+misses)
system.l2cache.WritebackDirty_accesses::total      6544458                       # number of WritebackDirty accesses(hits+misses)
system.l2cache.WritebackDirty_miss_rate::.writebacks     0.000055                       # miss rate for WritebackDirty accesses
system.l2cache.WritebackDirty_miss_rate::total     0.000055                       # miss rate for WritebackDirty accesses
system.l2cache.WritebackDirty_mshr_misses::.writebacks          358                       # number of WritebackDirty MSHR misses
system.l2cache.WritebackDirty_mshr_misses::total          358                       # number of WritebackDirty MSHR misses
system.l2cache.WritebackDirty_mshr_miss_rate::.writebacks     0.000055                       # mshr miss rate for WritebackDirty accesses
system.l2cache.WritebackDirty_mshr_miss_rate::total     0.000055                       # mshr miss rate for WritebackDirty accesses
system.l2cache.CleanEvict_mshr_misses::.writebacks        14386                       # number of CleanEvict MSHR misses
system.l2cache.CleanEvict_mshr_misses::total        14386                       # number of CleanEvict MSHR misses
system.l2cache.CleanEvict_mshr_miss_rate::.writebacks          inf                       # mshr miss rate for CleanEvict accesses
system.l2cache.CleanEvict_mshr_miss_rate::total          inf                       # mshr miss rate for CleanEvict accesses
system.l2cache.ReadExReq_hits::.cpu.data      3374518                       # number of ReadExReq hits
system.l2cache.ReadExReq_hits::total          3374518                       # number of ReadExReq hits
system.l2cache.ReadExReq_misses::.cpu.data       721973                       # number of ReadExReq misses
system.l2cache.ReadExReq_misses::total         721973                       # number of ReadExReq misses
system.l2cache.ReadExReq_miss_latency::.cpu.data  72018057000                       # number of ReadExReq miss cycles
system.l2cache.ReadExReq_miss_latency::total  72018057000                       # number of ReadExReq miss cycles
system.l2cache.ReadExReq_accesses::.cpu.data      4096491                       # number of ReadExReq accesses(hits+misses)
system.l2cache.ReadExReq_accesses::total      4096491                       # number of ReadExReq accesses(hits+misses)
system.l2cache.ReadExReq_miss_rate::.cpu.data     0.176242                       # miss rate for ReadExReq accesses
system.l2cache.ReadExReq_miss_rate::total     0.176242                       # miss rate for ReadExReq accesses
system.l2cache.ReadExReq_avg_miss_latency::.cpu.data 99751.731713                       # average ReadExReq miss latency
system.l2cache.ReadExReq_avg_miss_latency::total 99751.731713                       # average ReadExReq miss latency
system.l2cache.ReadExReq_mshr_misses::.cpu.data       721973                       # number of ReadExReq MSHR misses
system.l2cache.ReadExReq_mshr_misses::total       721973                       # number of ReadExReq MSHR misses
system.l2cache.ReadExReq_mshr_miss_latency::.cpu.data  57578597000                       # number of ReadExReq MSHR miss cycles
system.l2cache.ReadExReq_mshr_miss_latency::total  57578597000                       # number of ReadExReq MSHR miss cycles
system.l2cache.ReadExReq_mshr_miss_rate::.cpu.data     0.176242                       # mshr miss rate for ReadExReq accesses
system.l2cache.ReadExReq_mshr_miss_rate::total     0.176242                       # mshr miss rate for ReadExReq accesses
system.l2cache.ReadExReq_avg_mshr_miss_latency::.cpu.data 79751.731713                       # average ReadExReq mshr miss latency
system.l2cache.ReadExReq_avg_mshr_miss_latency::total 79751.731713                       # average ReadExReq mshr miss latency
system.l2cache.ReadSharedReq_hits::.cpu.inst         6006                       # number of ReadSharedReq hits
system.l2cache.ReadSharedReq_hits::.cpu.data      1679430                       # number of ReadSharedReq hits
system.l2cache.ReadSharedReq_hits::total      1685436                       # number of ReadSharedReq hits
system.l2cache.ReadSharedReq_misses::.cpu.inst         5107                       # number of ReadSharedReq misses
system.l2cache.ReadSharedReq_misses::.cpu.data      2194213                       # number of ReadSharedReq misses
system.l2cache.ReadSharedReq_misses::total      2199320                       # number of ReadSharedReq misses
system.l2cache.ReadSharedReq_miss_latency::.cpu.inst    518880000                       # number of ReadSharedReq miss cycles
system.l2cache.ReadSharedReq_miss_latency::.cpu.data 217806164000                       # number of ReadSharedReq miss cycles
system.l2cache.ReadSharedReq_miss_latency::total 218325044000                       # number of ReadSharedReq miss cycles
system.l2cache.ReadSharedReq_accesses::.cpu.inst        11113                       # number of ReadSharedReq accesses(hits+misses)
system.l2cache.ReadSharedReq_accesses::.cpu.data      3873643                       # number of ReadSharedReq accesses(hits+misses)
system.l2cache.ReadSharedReq_accesses::total      3884756                       # number of ReadSharedReq accesses(hits+misses)
system.l2cache.ReadSharedReq_miss_rate::.cpu.inst     0.459552                       # miss rate for ReadSharedReq accesses
system.l2cache.ReadSharedReq_miss_rate::.cpu.data     0.566447                       # miss rate for ReadSharedReq accesses
system.l2cache.ReadSharedReq_miss_rate::total     0.566141                       # miss rate for ReadSharedReq accesses
system.l2cache.ReadSharedReq_avg_miss_latency::.cpu.inst 101601.723125                       # average ReadSharedReq miss latency
system.l2cache.ReadSharedReq_avg_miss_latency::.cpu.data 99263.911024                       # average ReadSharedReq miss latency
system.l2cache.ReadSharedReq_avg_miss_latency::total 99269.339614                       # average ReadSharedReq miss latency
system.l2cache.ReadSharedReq_mshr_misses::.cpu.inst         5107                       # number of ReadSharedReq MSHR misses
system.l2cache.ReadSharedReq_mshr_misses::.cpu.data      2194213                       # number of ReadSharedReq MSHR misses
system.l2cache.ReadSharedReq_mshr_misses::total      2199320                       # number of ReadSharedReq MSHR misses
system.l2cache.ReadSharedReq_mshr_miss_latency::.cpu.inst    416740000                       # number of ReadSharedReq MSHR miss cycles
system.l2cache.ReadSharedReq_mshr_miss_latency::.cpu.data 173921904000                       # number of ReadSharedReq MSHR miss cycles
system.l2cache.ReadSharedReq_mshr_miss_latency::total 174338644000                       # number of ReadSharedReq MSHR miss cycles
system.l2cache.ReadSharedReq_mshr_miss_rate::.cpu.inst     0.459552                       # mshr miss rate for ReadSharedReq accesses
system.l2cache.ReadSharedReq_mshr_miss_rate::.cpu.data     0.566447                       # mshr miss rate for ReadSharedReq accesses
system.l2cache.ReadSharedReq_mshr_miss_rate::total     0.566141                       # mshr miss rate for ReadSharedReq accesses
system.l2cache.ReadSharedReq_avg_mshr_miss_latency::.cpu.inst 81601.723125                       # average ReadSharedReq mshr miss latency
system.l2cache.ReadSharedReq_avg_mshr_miss_latency::.cpu.data 79263.911024                       # average ReadSharedReq mshr miss latency
system.l2cache.ReadSharedReq_avg_mshr_miss_latency::total 79269.339614                       # average ReadSharedReq mshr miss latency
system.l2cache.power_state.pwrStateResidencyTicks::UNDEFINED 2616676769000                       # Cumulative time (in ticks) in various power states
system.l2cache.replacement_policy.totalBypasses        27500                       # Total number of cache bypasses
system.l2cache.replacement_policy.effectiveBypasses           11                       # Bypasses that correctly skipped non-reused blocks
system.l2cache.replacement_policy.ineffectiveBypasses        19908                       # Bypasses that incorrectly skipped requested blocks
system.l2cache.replacement_policy.virtualEffectiveBypasses           66                       # Virtual bypasses correctly predicting non-reused blocks
system.l2cache.replacement_policy.virtualIneffectiveBypasses       140868                       # Virtual bypasses incorrectly predicting requested blocks
system.l2cache.tags.tagsinuse             8187.857754                       # Cycle average of tags in use
system.l2cache.tags.total_refs               15919328                       # Total number of references to valid blocks.
system.l2cache.tags.sampled_refs              2928916                       # Sample count of references to valid blocks.
system.l2cache.tags.avg_refs                 5.435229                       # Average number of references to valid blocks.
system.l2cache.tags.warmup_cycle                86000                       # Cycle when the warmup percentage was hit.
system.l2cache.tags.occ_blocks::.writebacks   293.186509                       # Average occupied blocks per requestor
system.l2cache.tags.occ_blocks::.cpu.inst     4.484579                       # Average occupied blocks per requestor
system.l2cache.tags.occ_blocks::.cpu.data  7890.186666                       # Average occupied blocks per requestor
system.l2cache.tags.occ_percent::.writebacks     0.035789                       # Average percentage of cache occupancy
system.l2cache.tags.occ_percent::.cpu.inst     0.000547                       # Average percentage of cache occupancy
system.l2cache.tags.occ_percent::.cpu.data     0.963158                       # Average percentage of cache occupancy
system.l2cache.tags.occ_percent::total       0.999494                       # Average percentage of cache occupancy
system.l2cache.tags.occ_task_id_blocks::1024         8192                       # Occupied blocks per task id
system.l2cache.tags.age_task_id_blocks_1024::0           56                       # Occupied blocks per task id
system.l2cache.tags.age_task_id_blocks_1024::1          125                       # Occupied blocks per task id
system.l2cache.tags.age_task_id_blocks_1024::2         1904                       # Occupied blocks per task id
system.l2cache.tags.age_task_id_blocks_1024::3         5062                       # Occupied blocks per task id
system.l2cache.tags.age_task_id_blocks_1024::4         1045                       # Occupied blocks per task id
system.l2cache.tags.occ_task_id_percent::1024            1                       # Percentage of cache occupancy per task id
system.l2cache.tags.tag_accesses            130618628                       # Number of tag accesses
system.l2cache.tags.data_accesses           130618628                       # Number of data accesses
system.l2cache.tags.power_state.pwrStateResidencyTicks::UNDEFINED 2616676769000                       # Cumulative time (in ticks) in various power states
system.mem_ctrl.avgPriority_.writebacks::samples   2566153.00                       # Average QoS priority value for accepted requests
system.mem_ctrl.avgPriority_.cpu.inst::samples      5107.00                       # Average QoS priority value for accepted requests
system.mem_ctrl.avgPriority_.cpu.data::samples   2916085.00                       # Average QoS priority value for accepted requests
system.mem_ctrl.priorityMinLatency       0.000000018750                       # per QoS priority minimum request to response latency (s)
system.mem_ctrl.priorityMaxLatency       0.002036290500                       # per QoS priority maximum request to response latency (s)
system.mem_ctrl.numReadWriteTurnArounds        146596                       # Number of turnarounds from READ to WRITE
system.mem_ctrl.numWriteReadTurnArounds        146596                       # Number of turnarounds from WRITE to READ
system.mem_ctrl.numStayReadState              9027033                       # Number of times bus staying in READ state
system.mem_ctrl.numStayWriteState             2423165                       # Number of times bus staying in WRITE state
system.mem_ctrl.readReqs                      2921293                       # Number of read requests accepted
system.mem_ctrl.writeReqs                     2566153                       # Number of write requests accepted
system.mem_ctrl.readBursts                    2921293                       # Number of controller read bursts, including those serviced by the write queue
system.mem_ctrl.writeBursts                   2566153                       # Number of controller write bursts, including those merged in the write queue
system.mem_ctrl.servicedByWrQ                     101                       # Number of controller read bursts serviced by the write queue
system.mem_ctrl.mergedWrBursts                      0                       # Number of controller write bursts merged with an existing one
system.mem_ctrl.neitherReadNorWriteReqs             0                       # Number of requests that are neither read nor write
system.mem_ctrl.avgRdQLen                        1.00                       # Average read queue length when enqueuing
system.mem_ctrl.avgWrQLen                       24.77                       # Average write queue length when enqueuing
system.mem_ctrl.numRdRetry                          0                       # Number of times read queue was full causing retry
system.mem_ctrl.numWrRetry                          0                       # Number of times write queue was full causing retry
system.mem_ctrl.readPktSize::0                      0                       # Read request sizes (log2)
system.mem_ctrl.readPktSize::1                      0                       # Read request sizes (log2)
system.mem_ctrl.readPktSize::2                      0                       # Read request sizes (log2)
system.mem_ctrl.readPktSize::3                      0                       # Read request sizes (log2)
system.mem_ctrl.readPktSize::4                      0                       # Read request sizes (log2)
system.mem_ctrl.readPktSize::5                      0                       # Read request sizes (log2)
system.mem_ctrl.readPktSize::6                2921293                       # Read request sizes (log2)
system.mem_ctrl.writePktSize::0                     0                       # Write request sizes (log2)
system.mem_ctrl.writePktSize::1                     0                       # Write request sizes (log2)
system.mem_ctrl.writePktSize::2                     0                       # Write request sizes (log2)
system.mem_ctrl.writePktSize::3                     0                       # Write request sizes (log2)
system.mem_ctrl.writePktSize::4                     0                       # Write request sizes (log2)
system.mem_ctrl.writePktSize::5                     0                       # Write request sizes (log2)
system.mem_ctrl.writePktSize::6               2566153                       # Write request sizes (log2)
system.mem_ctrl.rdQLenPdf::0                  2921189                       # What read queue length does an incoming req see
system.mem_ctrl.rdQLenPdf::1                        3                       # What read queue length does an incoming req see
system.mem_ctrl.rdQLenPdf::2                        0                       # What read queue length does an incoming req see
system.mem_ctrl.rdQLenPdf::3                        0                       # What read queue length does an incoming req see
system.mem_ctrl.rdQLenPdf::4                        0                       # What read queue length does an incoming req see
system.mem_ctrl.rdQLenPdf::5                        0                       # What read queue length does an incoming req see
system.mem_ctrl.rdQLenPdf::6                        0                       # What read queue length does an incoming req see
system.mem_ctrl.rdQLenPdf::7                        0                       # What read queue length does an incoming req see
system.mem_ctrl.rdQLenPdf::8                        0                       # What read queue length does an incoming req see
system.mem_ctrl.rdQLenPdf::9                        0                       # What read queue length does an incoming req see
system.mem_ctrl.rdQLenPdf::10                       0                       # What read queue length does an incoming req see
system.mem_ctrl.rdQLenPdf::11                       0                       # What read queue length does an incoming req see
system.mem_ctrl.rdQLenPdf::12                       0                       # What read queue length does an incoming req see
system.mem_ctrl.rdQLenPdf::13                       0                       # What read queue length does an incoming req see
system.mem_ctrl.rdQLenPdf::14                       0                       # What read queue length does an incoming req see
system.mem_ctrl.rdQLenPdf::15                       0                       # What read queue length does an incoming req see
system.mem_ctrl.rdQLenPdf::16                       0                       # What read queue length does an incoming req see
system.mem_ctrl.rdQLenPdf::17                       0                       # What read queue length does an incoming req see
system.mem_ctrl.rdQLenPdf::18                       0                       # What read queue length does an incoming req see
system.mem_ctrl.rdQLenPdf::19                       0                       # What read queue length does an incoming req see
system.mem_ctrl.rdQLenPdf::20                       0                       # What read queue length does an incoming req see
system.mem_ctrl.rdQLenPdf::21                       0                       # What read queue length does an incoming req see
system.mem_ctrl.rdQLenPdf::22                       0                       # What read queue length does an incoming req see
system.mem_ctrl.rdQLenPdf::23                       0                       # What read queue length does an incoming req see
system.mem_ctrl.rdQLenPdf::24                       0                       # What read queue length does an incoming req see
system.mem_ctrl.rdQLenPdf::25                       0                       # What read queue length does an incoming req see
system.mem_ctrl.rdQLenPdf::26                       0                       # What read queue length does an incoming req see
system.mem_ctrl.rdQLenPdf::27                       0                       # What read queue length does an incoming req see
system.mem_ctrl.rdQLenPdf::28                       0                       # What read queue length does an incoming req see
system.mem_ctrl.rdQLenPdf::29                       0                       # What read queue length does an incoming req see
system.mem_ctrl.rdQLenPdf::30                       0                       # What read queue length does an incoming req see
system.mem_ctrl.rdQLenPdf::31                       0                       # What read queue length does an incoming req see
system.mem_ctrl.wrQLenPdf::0                        1                       # What write queue length does an incoming req see
system.mem_ctrl.wrQLenPdf::1                        1                       # What write queue length does an incoming req see
system.mem_ctrl.wrQLenPdf::2                        1                       # What write queue length does an incoming req see
system.mem_ctrl.wrQLenPdf::3                        1                       # What write queue length does an incoming req see
system.mem_ctrl.wrQLenPdf::4                        1                       # What write queue length does an incoming req see
system.mem_ctrl.wrQLenPdf::5                        1                       # What write queue length does an incoming req see
system.mem_ctrl.wrQLenPdf::6                        1                       # What write queue length does an incoming req see
system.mem_ctrl.wrQLenPdf::7                        1                       # What write queue length does an incoming req see
system.mem_ctrl.wrQLenPdf::8                        1                       # What write queue length does an incoming req see
system.mem_ctrl.wrQLenPdf::9                        1                       # What write queue length does an incoming req see
system.mem_ctrl.wrQLenPdf::10                       1                       # What write queue length does an incoming req see
system.mem_ctrl.wrQLenPdf::11                       1                       # What write queue length does an incoming req see
system.mem_ctrl.wrQLenPdf::12                       1                       # What write queue length does an incoming req see
system.mem_ctrl.wrQLenPdf::13                       1                       # What write queue length does an incoming req see
system.mem_ctrl.wrQLenPdf::14                       1                       # What write queue length does an incoming req see
system.mem_ctrl.wrQLenPdf::15                  108755                       # What write queue length does an incoming req see
system.mem_ctrl.wrQLenPdf::16                  110484                       # What write queue length does an incoming req see
system.mem_ctrl.wrQLenPdf::17                  146144                       # What write queue length does an incoming req see
system.mem_ctrl.wrQLenPdf::18                  146745                       # What write queue length does an incoming req see
system.mem_ctrl.wrQLenPdf::19                  146984                       # What write queue length does an incoming req see
system.mem_ctrl.wrQLenPdf::20                  146667                       # What write queue length does an incoming req see
system.mem_ctrl.wrQLenPdf::21                  147153                       # What write queue length does an incoming req see
system.mem_ctrl.wrQLenPdf::22                  146806                       # What write queue length does an incoming req see
system.mem_ctrl.wrQLenPdf::23                  146870                       # What write queue length does an incoming req see
system.mem_ctrl.wrQLenPdf::24                  146722                       # What write queue length does an incoming req see
system.mem_ctrl.wrQLenPdf::25                  146605                       # What write queue length does an incoming req see
system.mem_ctrl.wrQLenPdf::26                  146605                       # What write queue length does an incoming req see
system.mem_ctrl.wrQLenPdf::27                  146602                       # What write queue length does an incoming req see
system.mem_ctrl.wrQLenPdf::28                  146598                       # What write queue length does an incoming req see
system.mem_ctrl.wrQLenPdf::29                  146597                       # What write queue length does an incoming req see
system.mem_ctrl.wrQLenPdf::30                  146598                       # What write queue length does an incoming req see
system.mem_ctrl.wrQLenPdf::31                  146597                       # What write queue length does an incoming req see
system.mem_ctrl.wrQLenPdf::32                  146598                       # What write queue length does an incoming req see
system.mem_ctrl.wrQLenPdf::33                       8                       # What write queue length does an incoming req see
system.mem_ctrl.wrQLenPdf::34                       0                       # What write queue length does an incoming req see
system.mem_ctrl.wrQLenPdf::35                       0                       # What write queue length does an incoming req see
system.mem_ctrl.wrQLenPdf::36                       0                       # What write queue length does an incoming req see
system.mem_ctrl.wrQLenPdf::37                       0                       # What write queue length does an incoming req see
system.mem_ctrl.wrQLenPdf::38                       0                       # What write queue length does an incoming req see
system.mem_ctrl.wrQLenPdf::39                       0                       # What write queue length does an incoming req see
system.mem_ctrl.wrQLenPdf::40                       0                       # What write queue length does an incoming req see
system.mem_ctrl.wrQLenPdf::41                       0                       # What write queue length does an incoming req see
system.mem_ctrl.wrQLenPdf::42                       0                       # What write queue length does an incoming req see
system.mem_ctrl.wrQLenPdf::43                       0                       # What write queue length does an incoming req see
system.mem_ctrl.wrQLenPdf::44                       0                       # What write queue length does an incoming req see
system.mem_ctrl.wrQLenPdf::45                       0                       # What write queue length does an incoming req see
system.mem_ctrl.wrQLenPdf::46                       0                       # What write queue length does an incoming req see
system.mem_ctrl.wrQLenPdf::47                       0                       # What write queue length does an incoming req see
system.mem_ctrl.wrQLenPdf::48                       0                       # What write queue length does an incoming req see
system.mem_ctrl.wrQLenPdf::49                       0                       # What write queue length does an incoming req see
system.mem_ctrl.wrQLenPdf::50                       0                       # What write queue length does an incoming req see
system.mem_ctrl.wrQLenPdf::51                       0                       # What write queue length does an incoming req see
system.mem_ctrl.wrQLenPdf::52                       0                       # What write queue length does an incoming req see
system.mem_ctrl.wrQLenPdf::53                       0                       # What write queue length does an incoming req see
system.mem_ctrl.wrQLenPdf::54                       0                       # What write queue length does an incoming req see
system.mem_ctrl.wrQLenPdf::55                       0                       # What write queue length does an incoming req see
system.mem_ctrl.wrQLenPdf::56                       0                       # What write queue length does an incoming req see
system.mem_ctrl.wrQLenPdf::57                       0                       # What write queue length does an incoming req see
system.mem_ctrl.wrQLenPdf::58                       0                       # What write queue length does an incoming req see
system.mem_ctrl.wrQLenPdf::59                       0                       # What write queue length does an incoming req see
system.mem_ctrl.wrQLenPdf::60                       0                       # What write queue length does an incoming req see
system.mem_ctrl.wrQLenPdf::61                       0                       # What write queue length does an incoming req see
system.mem_ctrl.wrQLenPdf::62                       0                       # What write queue length does an incoming req see
system.mem_ctrl.wrQLenPdf::63                       0                       # What write queue length does an incoming req see
system.mem_ctrl.rdPerTurnAround::samples       146596                       # Reads before turning the bus around for writes
system.mem_ctrl.rdPerTurnAround::mean       19.926758                       # Reads before turning the bus around for writes
system.mem_ctrl.rdPerTurnAround::gmean      18.953370                       # Reads before turning the bus around for writes
system.mem_ctrl.rdPerTurnAround::stdev      23.871887                       # Reads before turning the bus around for writes
system.mem_ctrl.rdPerTurnAround::0-511         146594    100.00%    100.00% # Reads before turning the bus around for writes
system.mem_ctrl.rdPerTurnAround::512-1023            1      0.00%    100.00% # Reads before turning the bus around for writes
system.mem_ctrl.rdPerTurnAround::8192-8703            1      0.00%    100.00% # Reads before turning the bus around for writes
system.mem_ctrl.rdPerTurnAround::total         146596                       # Reads before turning the bus around for writes
system.mem_ctrl.wrPerTurnAround::samples       146596                       # Writes before turning the bus around for reads
system.mem_ctrl.wrPerTurnAround::mean       17.504768                       # Writes before turning the bus around for reads
system.mem_ctrl.wrPerTurnAround::gmean      17.482031                       # Writes before turning the bus around for reads
system.mem_ctrl.wrPerTurnAround::stdev       0.875642                       # Writes before turning the bus around for reads
system.mem_ctrl.wrPerTurnAround::16             36313     24.77%     24.77% # Writes before turning the bus around for reads
system.mem_ctrl.wrPerTurnAround::17              1520      1.04%     25.81% # Writes before turning the bus around for reads
system.mem_ctrl.wrPerTurnAround::18            107228     73.15%     98.95% # Writes before turning the bus around for reads
system.mem_ctrl.wrPerTurnAround::19              1527      1.04%     99.99% # Writes before turning the bus around for reads
system.mem_ctrl.wrPerTurnAround::20                 6      0.00%    100.00% # Writes before turning the bus around for reads
system.mem_ctrl.wrPerTurnAround::22                 2      0.00%    100.00% # Writes before turning the bus around for reads
system.mem_ctrl.wrPerTurnAround::total         146596                       # Writes before turning the bus around for reads
system.mem_ctrl.bytesReadWrQ                     6464                       # Total number of bytes read from write queue
system.mem_ctrl.bytesReadSys                186962752                       # Total read bytes from the system interface side
system.mem_ctrl.bytesWrittenSys             164233792                       # Total written bytes from the system interface side
system.mem_ctrl.avgRdBWSys                      71.45                       # Average system read bandwidth in MiByte/s
system.mem_ctrl.avgWrBWSys                      62.76                       # Average system write bandwidth in MiByte/s
system.mem_ctrl.totGap                   2616676737000                       # Total gap between requests
system.mem_ctrl.avgGap                      476847.83                       # Average gap between requests
[...]
system.mem_ctrl.requestorReadRate::.cpu.data 71323077.504648417234                       # Per-requestor bytes read from memory rate (Bytes/sec)
system.mem_ctrl.requestorWriteRate::.writebacks 62763677.174679726362                       # Per-requestor bytes write to memory rate (Bytes/sec)
system.mem_ctrl.requestorReadAccesses::.cpu.inst         5107                       # Per-requestor read serviced memory accesses
system.mem_ctrl.requestorReadAccesses::.cpu.data      2916186                       # Per-requestor read serviced memory accesses
system.mem_ctrl.requestorWriteAccesses::.writebacks      2566153                       # Per-requestor write serviced memory accesses
system.mem_ctrl.requestorReadTotalLat::.cpu.inst    154500000                       # Per-requestor read total memory access latency
system.mem_ctrl.requestorReadTotalLat::.cpu.data  81896730750                       # Per-requestor read total memory access latency
system.mem_ctrl.requestorWriteTotalLat::.writebacks 62232302976000                       # Per-requestor write total memory access latency
system.mem_ctrl.requestorReadAvgLat::.cpu.inst     30252.59                       # Per-requestor read average memory access latency
system.mem_ctrl.requestorReadAvgLat::.cpu.data     28083.51                       # Per-requestor read average memory access latency
system.mem_ctrl.requestorWriteAvgLat::.writebacks  24251205.20                       # Per-requestor write average memory access latency
system.mem_ctrl.dram.bytes_read::.cpu.inst       326848                       # Number of bytes read from this memory
system.mem_ctrl.dram.bytes_read::.cpu.data    186635904                       # Number of bytes read from this memory
system.mem_ctrl.dram.bytes_read::total      186962752                       # Number of bytes read from this memory
system.mem_ctrl.dram.bytes_inst_read::.cpu.inst       326848                       # Number of instructions bytes read from this memory
system.mem_ctrl.dram.bytes_inst_read::total       326848                       # Number of instructions bytes read from this memory
system.mem_ctrl.dram.bytes_written::.writebacks    164233792                       # Number of bytes written to this memory
system.mem_ctrl.dram.bytes_written::total    164233792                       # Number of bytes written to this memory
system.mem_ctrl.dram.num_reads::.cpu.inst         5107                       # Number of read requests responded to by this memory
system.mem_ctrl.dram.num_reads::.cpu.data      2916186                       # Number of read requests responded to by this memory
system.mem_ctrl.dram.num_reads::total         2921293                       # Number of read requests responded to by this memory
system.mem_ctrl.dram.num_writes::.writebacks      2566153                       # Number of write requests responded to by this memory
system.mem_ctrl.dram.num_writes::total        2566153                       # Number of write requests responded to by this memory
system.mem_ctrl.dram.bw_read::.cpu.inst        124910                       # Total read bandwidth from this memory (bytes/s)
system.mem_ctrl.dram.bw_read::.cpu.data      71325548                       # Total read bandwidth from this memory (bytes/s)
system.mem_ctrl.dram.bw_read::total          71450457                       # Total read bandwidth from this memory (bytes/s)
system.mem_ctrl.dram.bw_inst_read::.cpu.inst       124910                       # Instruction read bandwidth from this memory (bytes/s)
system.mem_ctrl.dram.bw_inst_read::total       124910                       # Instruction read bandwidth from this memory (bytes/s)
system.mem_ctrl.dram.bw_write::.writebacks     62764264                       # Write bandwidth from this memory (bytes/s)
system.mem_ctrl.dram.bw_write::total         62764264                       # Write bandwidth from this memory (bytes/s)
system.mem_ctrl.dram.bw_total::.writebacks     62764264                       # Total bandwidth to/from this memory (bytes/s)
system.mem_ctrl.dram.bw_total::.cpu.inst       124910                       # Total bandwidth to/from this memory (bytes/s)
system.mem_ctrl.dram.bw_total::.cpu.data     71325548                       # Total bandwidth to/from this memory (bytes/s)
system.mem_ctrl.dram.bw_total::total        134214722                       # Total bandwidth to/from this memory (bytes/s)
system.mem_ctrl.dram.readBursts               2921192                       # Number of DRAM read bursts
system.mem_ctrl.dram.writeBursts              2566129                       # Number of DRAM write bursts
system.mem_ctrl.dram.perBankRdBursts::0        184166                       # Per bank write bursts
system.mem_ctrl.dram.perBankRdBursts::1        184079                       # Per bank write bursts
system.mem_ctrl.dram.perBankRdBursts::2        183808                       # Per bank write bursts
system.mem_ctrl.dram.perBankRdBursts::3        183311                       # Per bank write bursts
system.mem_ctrl.dram.perBankRdBursts::4        183401                       # Per bank write bursts
system.mem_ctrl.dram.perBankRdBursts::5        180944                       # Per bank write bursts
system.mem_ctrl.dram.perBankRdBursts::6        182353                       # Per bank write bursts
system.mem_ctrl.dram.perBankRdBursts::7        182591                       # Per bank write bursts
system.mem_ctrl.dram.perBankRdBursts::8        182099                       # Per bank write bursts
system.mem_ctrl.dram.perBankRdBursts::9        181320                       # Per bank write bursts
system.mem_ctrl.dram.perBankRdBursts::10       181581                       # Per bank write bursts
system.mem_ctrl.dram.perBankRdBursts::11       181631                       # Per bank write bursts
system.mem_ctrl.dram.perBankRdBursts::12       180754                       # Per bank write bursts
system.mem_ctrl.dram.perBankRdBursts::13       180936                       # Per bank write bursts
system.mem_ctrl.dram.perBankRdBursts::14       184100                       # Per bank write bursts
system.mem_ctrl.dram.perBankRdBursts::15       184118                       # Per bank write bursts
system.mem_ctrl.dram.perBankWrBursts::0        161305                       # Per bank write bursts
system.mem_ctrl.dram.perBankWrBursts::1        161266                       # Per bank write bursts
system.mem_ctrl.dram.perBankWrBursts::2        161336                       # Per bank write bursts
system.mem_ctrl.dram.perBankWrBursts::3        161362                       # Per bank write bursts
system.mem_ctrl.dram.perBankWrBursts::4        161487                       # Per bank write bursts
system.mem_ctrl.dram.perBankWrBursts::5        159322                       # Per bank write bursts
system.mem_ctrl.dram.perBankWrBursts::6        160465                       # Per bank write bursts
system.mem_ctrl.dram.perBankWrBursts::7        160437                       # Per bank write bursts
system.mem_ctrl.dram.perBankWrBursts::8        160231                       # Per bank write bursts
system.mem_ctrl.dram.perBankWrBursts::9        159327                       # Per bank write bursts
system.mem_ctrl.dram.perBankWrBursts::10       159413                       # Per bank write bursts
system.mem_ctrl.dram.perBankWrBursts::11       159376                       # Per bank write bursts
system.mem_ctrl.dram.perBankWrBursts::12       159006                       # Per bank write bursts
system.mem_ctrl.dram.perBankWrBursts::13       159155                       # Per bank write bursts
system.mem_ctrl.dram.perBankWrBursts::14       161333                       # Per bank write bursts
system.mem_ctrl.dram.perBankWrBursts::15       161308                       # Per bank write bursts
system.mem_ctrl.dram.totQLat              27278880750                       # Total ticks spent queuing
system.mem_ctrl.dram.totBusLat            14605960000                       # Total ticks spent in databus transfers
system.mem_ctrl.dram.totMemAccLat         82051230750                       # Total ticks spent from burst creation until serviced by the DRAM
system.mem_ctrl.dram.avgQLat                  9338.27                       # Average queueing delay per DRAM burst
system.mem_ctrl.dram.avgBusLat                5000.00                       # Average bus latency per DRAM burst
system.mem_ctrl.dram.avgMemAccLat            28088.27                       # Average memory access latency per DRAM burst
system.mem_ctrl.dram.readRowHits              2432090                       # Number of row buffer hits during reads
system.mem_ctrl.dram.writeRowHits             2211072                       # Number of row buffer hits during writes
system.mem_ctrl.dram.readRowHitRate             83.26                       # Row buffer hit rate for reads
system.mem_ctrl.dram.writeRowHitRate            86.16                       # Row buffer hit rate for writes
system.mem_ctrl.dram.bytesPerActivate::samples       844144                       # Bytes accessed per row activation
system.mem_ctrl.dram.bytesPerActivate::mean   416.026005                       # Bytes accessed per row activation
system.mem_ctrl.dram.bytesPerActivate::gmean   291.162679                       # Bytes accessed per row activation
system.mem_ctrl.dram.bytesPerActivate::stdev   309.266295                       # Bytes accessed per row activation
system.mem_ctrl.dram.bytesPerActivate::0-127       142571     16.89%     16.89% # Bytes accessed per row activation
system.mem_ctrl.dram.bytesPerActivate::128-255       171736     20.34%     37.23% # Bytes accessed per row activation
system.mem_ctrl.dram.bytesPerActivate::256-383        92420     10.95%     48.18% # Bytes accessed per row activation
system.mem_ctrl.dram.bytesPerActivate::384-511       102185     12.11%     60.29% # Bytes accessed per row activation
system.mem_ctrl.dram.bytesPerActivate::512-639       138842     16.45%     76.74% # Bytes accessed per row activation
system.mem_ctrl.dram.bytesPerActivate::640-767        44238      5.24%     81.98% # Bytes accessed per row activation
system.mem_ctrl.dram.bytesPerActivate::768-895        40284      4.77%     86.75% # Bytes accessed per row activation
system.mem_ctrl.dram.bytesPerActivate::896-1023        27191      3.22%     89.97% # Bytes accessed per row activation
system.mem_ctrl.dram.bytesPerActivate::1024-1151        84677     10.03%    100.00% # Bytes accessed per row activation
system.mem_ctrl.dram.bytesPerActivate::total       844144                       # Bytes accessed per row activation
system.mem_ctrl.dram.bytesRead              186956288                       # Total number of bytes read from DRAM
system.mem_ctrl.dram.bytesWritten           164232256                       # Total number of bytes written to DRAM
system.mem_ctrl.dram.avgRdBW                71.447987                       # Average DRAM read bandwidth in MiBytes/s
system.mem_ctrl.dram.avgWrBW                62.763677                       # Average DRAM write bandwidth in MiBytes/s
system.mem_ctrl.dram.peakBW                  12800.00                       # Theoretical peak bandwidth in MiByte/s
system.mem_ctrl.dram.busUtil                     1.05                       # Data bus utilization in percentage
system.mem_ctrl.dram.busUtilRead                 0.56                       # Data bus utilization in percentage for reads
system.mem_ctrl.dram.busUtilWrite                0.49                       # Data bus utilization in percentage for writes
system.mem_ctrl.dram.pageHitRate                84.62                       # Row buffer hit rate, read and write combined
system.mem_ctrl.dram.power_state.pwrStateResidencyTicks::UNDEFINED 2616676769000                       # Cumulative time (in ticks) in various power states
system.mem_ctrl.dram.rank0.actEnergy       2995608420                       # Energy for activate commands per rank (pJ)
system.mem_ctrl.dram.rank0.preEnergy       1592173275                       # Energy for precharge commands per rank (pJ)
system.mem_ctrl.dram.rank0.readEnergy     10457622420                       # Energy for read commands per rank (pJ)
system.mem_ctrl.dram.rank0.writeEnergy     6718035600                       # Energy for write commands per rank (pJ)
system.mem_ctrl.dram.rank0.refreshEnergy 206557762320.000031                       # Energy for refresh commands per rank (pJ)
system.mem_ctrl.dram.rank0.actBackEnergy 315329330070                       # Energy for active background per rank (pJ)
system.mem_ctrl.dram.rank0.preBackEnergy 739263391200                       # Energy for precharge background per rank (pJ)
system.mem_ctrl.dram.rank0.actPowerDownEnergy            0                       # Energy for active power-down per rank (pJ)
system.mem_ctrl.dram.rank0.prePowerDownEnergy            0                       # Energy for precharge power-down per rank (pJ)
system.mem_ctrl.dram.rank0.selfRefreshEnergy            0                       # Energy for self refresh per rank (pJ)
system.mem_ctrl.dram.rank0.totalEnergy   1282913923305                       # Total energy per rank (pJ)
system.mem_ctrl.dram.rank0.averagePower    490.283683                       # Core power per rank (mW)
system.mem_ctrl.dram.rank0.totalIdleTime            0                       # Total Idle time Per DRAM Rank
system.mem_ctrl.dram.rank0.pwrStateTime::IDLE 1917830762500                       # Time in different power states
system.mem_ctrl.dram.rank0.pwrStateTime::REF  87376380000                       # Time in different power states
system.mem_ctrl.dram.rank0.pwrStateTime::SREF            0                       # Time in different power states
system.mem_ctrl.dram.rank0.pwrStateTime::PRE_PDN            0                       # Time in different power states
system.mem_ctrl.dram.rank0.pwrStateTime::ACT 611469626500                       # Time in different power states
system.mem_ctrl.dram.rank0.pwrStateTime::ACT_PDN            0                       # Time in different power states
system.mem_ctrl.dram.rank1.actEnergy       3031686840                       # Energy for activate commands per rank (pJ)
system.mem_ctrl.dram.rank1.preEnergy       1611353205                       # Energy for precharge commands per rank (pJ)
system.mem_ctrl.dram.rank1.readEnergy     10399688460                       # Energy for read commands per rank (pJ)
system.mem_ctrl.dram.rank1.writeEnergy     6677157780                       # Energy for write commands per rank (pJ)
system.mem_ctrl.dram.rank1.refreshEnergy 206557762320.000031                       # Energy for refresh commands per rank (pJ)
system.mem_ctrl.dram.rank1.actBackEnergy 314253144420                       # Energy for active background per rank (pJ)
system.mem_ctrl.dram.rank1.preBackEnergy 740169652800                       # Energy for precharge background per rank (pJ)
system.mem_ctrl.dram.rank1.actPowerDownEnergy            0                       # Energy for active power-down per rank (pJ)
system.mem_ctrl.dram.rank1.prePowerDownEnergy            0                       # Energy for precharge power-down per rank (pJ)
system.mem_ctrl.dram.rank1.selfRefreshEnergy            0                       # Energy for self refresh per rank (pJ)
system.mem_ctrl.dram.rank1.totalEnergy   1282700445825                       # Total energy per rank (pJ)
system.mem_ctrl.dram.rank1.averagePower    490.202099                       # Core power per rank (mW)
system.mem_ctrl.dram.rank1.totalIdleTime            0                       # Total Idle time Per DRAM Rank
system.mem_ctrl.dram.rank1.pwrStateTime::IDLE 1920251916250                       # Time in different power states
system.mem_ctrl.dram.rank1.pwrStateTime::REF  87376380000                       # Time in different power states
system.mem_ctrl.dram.rank1.pwrStateTime::SREF            0                       # Time in different power states
system.mem_ctrl.dram.rank1.pwrStateTime::PRE_PDN            0                       # Time in different power states
system.mem_ctrl.dram.rank1.pwrStateTime::ACT 609048472750                       # Time in different power states
system.mem_ctrl.dram.rank1.pwrStateTime::ACT_PDN            0                       # Time in different power states
system.mem_ctrl.power_state.pwrStateResidencyTicks::UNDEFINED 2616676769000                       # Cumulative time (in ticks) in various power states
system.membus.trans_dist::ReadResp            2199320                       # Transaction distribution
system.membus.trans_dist::WritebackDirty      2566153                       # Transaction distribution
system.membus.trans_dist::CleanEvict           346920                       # Transaction distribution
system.membus.trans_dist::ReadExReq            721973                       # Transaction distribution
system.membus.trans_dist::ReadExResp           721973                       # Transaction distribution
system.membus.trans_dist::ReadSharedReq       2199320                       # Transaction distribution
system.membus.pkt_count_system.l2cache.mem_side_port::system.mem_ctrl.port      8755659                       # Packet count per connected requestor and responder (bytes)
system.membus.pkt_count_system.l2cache.mem_side_port::total      8755659                       # Packet count per connected requestor and responder (bytes)
system.membus.pkt_count::total                8755659                       # Packet count per connected requestor and responder (bytes)
system.membus.pkt_size_system.l2cache.mem_side_port::system.mem_ctrl.port    351196544                       # Cumulative packet size per connected requestor and responder (bytes)
system.membus.pkt_size_system.l2cache.mem_side_port::total    351196544                       # Cumulative packet size per connected requestor and responder (bytes)
system.membus.pkt_size::total               351196544                       # Cumulative packet size per connected requestor and responder (bytes)
system.membus.snoops                                0                       # Total snoops (count)
system.membus.snoopTraffic                          0                       # Total snoop traffic (bytes)
system.membus.snoop_fanout::samples           2921293                       # Request fanout histogram
system.membus.snoop_fanout::mean                    0                       # Request fanout histogram
system.membus.snoop_fanout::stdev                   0                       # Request fanout histogram
system.membus.snoop_fanout::underflows              0      0.00%      0.00% # Request fanout histogram
system.membus.snoop_fanout::0                 2921293    100.00%    100.00% # Request fanout histogram
system.membus.snoop_fanout::1                       0      0.00%    100.00% # Request fanout histogram
system.membus.snoop_fanout::overflows               0      0.00%    100.00% # Request fanout histogram
system.membus.snoop_fanout::min_value               0                       # Request fanout histogram
system.membus.snoop_fanout::max_value               0                       # Request fanout histogram
system.membus.snoop_fanout::total             2921293                       # Request fanout histogram
system.membus.power_state.pwrStateResidencyTicks::UNDEFINED 2616676769000                       # Cumulative time (in ticks) in various power states
system.membus.reqLayer2.occupancy         16098978000                       # Layer occupancy (ticks)
system.membus.reqLayer2.utilization               0.6                       # Layer utilization (%)
system.membus.respLayer0.occupancy        15487226750                       # Layer occupancy (ticks)
system.membus.respLayer0.utilization              0.6                       # Layer utilization (%)

---------- End Simulation Statistics   ----------
