
---------- Begin Simulation Statistics ----------
final_tick                                 9184513000                       # Number of ticks from beginning of simulation (restored from checkpoints and never reset)
host_inst_rate                                 440124                       # Simulator instruction rate (inst/s)
host_mem_usage                                 714920                       # Number of bytes of host memory used
host_op_rate                                   775379                       # Simulator op (including micro ops) rate (op/s)
host_seconds                                     5.29                       # Real time elapsed on the host
host_tick_rate                             1737087928                       # Simulator tick rate (ticks/s)
sim_freq                                 1000000000000                       # Frequency of simulated ticks
sim_insts                                     2326963                       # Number of instructions simulated
sim_ops                                       4099626                       # Number of ops (including micro ops) simulated
sim_seconds                                  0.009185                       # Number of seconds simulated
sim_ticks                                  9184513000                       # Number of ticks simulated
system.cpu.Branches                            369070                       # Number of branches fetched
system.cpu.committedInsts                     2326963                       # Number of instructions committed
system.cpu.committedOps                       4099626                       # Number of ops (including micro ops) committed
system.cpu.idle_fraction                     0.000000                       # Percentage of idle cycles
system.cpu.not_idle_fraction                 1.000000                       # Percentage of non-idle cycles
system.cpu.numCycles                          9184513                       # number of cpu cycles simulated
system.cpu.numWorkItemsCompleted                    0                       # number of work items this cpu completed
system.cpu.numWorkItemsStarted                      0                       # number of work items this cpu started
system.cpu.num_busy_cycles               9184512.999000                       # Number of busy cycles
system.cpu.num_cc_register_reads              2309237                       # number of times the CC registers were read
system.cpu.num_cc_register_writes             1840677                       # number of times the CC registers were written
system.cpu.num_conditional_control_insts       322526                       # number of instructions that are conditional controls
system.cpu.num_fp_alu_accesses                  92029                       # Number of float alu accesses
system.cpu.num_fp_insts                         92029                       # number of float instructions
system.cpu.num_fp_register_reads               127654                       # number of times the floating registers were read
system.cpu.num_fp_register_writes               68032                       # number of times the floating registers were written
system.cpu.num_func_calls                       23798                       # number of times a function call or return occured
system.cpu.num_idle_cycles                   0.001000                       # Number of idle cycles
system.cpu.num_int_alu_accesses               4025528                       # Number of integer alu accesses
system.cpu.num_int_insts                      4025528                       # number of integer instructions
system.cpu.num_int_register_reads             8089439                       # number of times the integer registers were read
system.cpu.num_int_register_writes            3517937                       # number of times the integer registers were written
system.cpu.num_load_insts                      529201                       # Number of load instructions
system.cpu.num_mem_refs                        731515                       # number of memory refs
system.cpu.num_store_insts                     202314                       # Number of store instructions
system.cpu.num_vec_alu_accesses                     0                       # Number of vector alu accesses
system.cpu.num_vec_insts                            0                       # number of vector instructions
system.cpu.num_vec_register_reads                   0                       # number of times the vector registers were read
system.cpu.num_vec_register_writes                  0                       # number of times the vector registers were written
system.cpu.op_class::No_OpClass                 27046      0.66%      0.66% # Class of executed instruction
system.cpu.op_class::IntAlu                   3247351     79.20%     79.86% # Class of executed instruction
system.cpu.op_class::IntMult                       48      0.00%     79.87% # Class of executed instruction
system.cpu.op_class::IntDiv                     38408      0.94%     80.80% # Class of executed instruction
system.cpu.op_class::FloatAdd                    5832      0.14%     80.94% # Class of executed instruction
system.cpu.op_class::FloatCmp                       0      0.00%     80.94% # Class of executed instruction
system.cpu.op_class::FloatCvt                    1680      0.04%     80.99% # Class of executed instruction
system.cpu.op_class::FloatMult                      0      0.00%     80.99% # Class of executed instruction
system.cpu.op_class::FloatMultAcc                   0      0.00%     80.99% # Class of executed instruction
system.cpu.op_class::FloatDiv                       0      0.00%     80.99% # Class of executed instruction
system.cpu.op_class::FloatMisc                      0      0.00%     80.99% # Class of executed instruction
system.cpu.op_class::FloatSqrt                      0      0.00%     80.99% # Class of executed instruction
system.cpu.op_class::SimdAdd                     7114      0.17%     81.16% # Class of executed instruction
system.cpu.op_class::SimdAddAcc                     0      0.00%     81.16% # Class of executed instruction
system.cpu.op_class::SimdAlu                    12801      0.31%     81.47% # Class of executed instruction
system.cpu.op_class::SimdCmp                        6      0.00%     81.47% # Class of executed instruction
system.cpu.op_class::SimdCvt                    14642      0.36%     81.83% # Class of executed instruction
system.cpu.op_class::SimdMisc                   12645      0.31%     82.14% # Class of executed instruction
system.cpu.op_class::SimdMult                       0      0.00%     82.14% # Class of executed instruction
system.cpu.op_class::SimdMultAcc                    0      0.00%     82.14% # Class of executed instruction
system.cpu.op_class::SimdShift                    884      0.02%     82.16% # Class of executed instruction
system.cpu.op_class::SimdShiftAcc                   0      0.00%     82.16% # Class of executed instruction
system.cpu.op_class::SimdDiv                        0      0.00%     82.16% # Class of executed instruction
system.cpu.op_class::SimdSqrt                       0      0.00%     82.16% # Class of executed instruction
system.cpu.op_class::SimdFloatAdd                   0      0.00%     82.16% # Class of executed instruction
system.cpu.op_class::SimdFloatAlu                   0      0.00%     82.16% # Class of executed instruction
system.cpu.op_class::SimdFloatCmp                   0      0.00%     82.16% # Class of executed instruction
system.cpu.op_class::SimdFloatCvt                   0      0.00%     82.16% # Class of executed instruction
system.cpu.op_class::SimdFloatDiv                   0      0.00%     82.16% # Class of executed instruction
system.cpu.op_class::SimdFloatMisc                  0      0.00%     82.16% # Class of executed instruction
system.cpu.op_class::SimdFloatMult                  0      0.00%     82.16% # Class of executed instruction
system.cpu.op_class::SimdFloatMultAcc               0      0.00%     82.16% # Class of executed instruction
system.cpu.op_class::SimdFloatSqrt                  0      0.00%     82.16% # Class of executed instruction
system.cpu.op_class::SimdReduceAdd                  0      0.00%     82.16% # Class of executed instruction
system.cpu.op_class::SimdReduceAlu                  0      0.00%     82.16% # Class of executed instruction
system.cpu.op_class::SimdReduceCmp                  0      0.00%     82.16% # Class of executed instruction
system.cpu.op_class::SimdFloatReduceAdd             0      0.00%     82.16% # Class of executed instruction
system.cpu.op_class::SimdFloatReduceCmp             0      0.00%     82.16% # Class of executed instruction
system.cpu.op_class::SimdAes                        0      0.00%     82.16% # Class of executed instruction
system.cpu.op_class::SimdAesMix                     0      0.00%     82.16% # Class of executed instruction
system.cpu.op_class::SimdSha1Hash                   0      0.00%     82.16% # Class of executed instruction
system.cpu.op_class::SimdSha1Hash2                  0      0.00%     82.16% # Class of executed instruction
system.cpu.op_class::SimdSha256Hash                 0      0.00%     82.16% # Class of executed instruction
system.cpu.op_class::SimdSha256Hash2                0      0.00%     82.16% # Class of executed instruction
system.cpu.op_class::SimdShaSigma2                  0      0.00%     82.16% # Class of executed instruction
system.cpu.op_class::SimdShaSigma3                  0      0.00%     82.16% # Class of executed instruction
system.cpu.op_class::SimdPredAlu                    0      0.00%     82.16% # Class of executed instruction
system.cpu.op_class::MemRead                   510362     12.45%     94.61% # Class of executed instruction
system.cpu.op_class::MemWrite                  187529      4.57%     99.18% # Class of executed instruction
system.cpu.op_class::FloatMemRead               18839      0.46%     99.64% # Class of executed instruction
system.cpu.op_class::FloatMemWrite              14785      0.36%    100.00% # Class of executed instruction
system.cpu.op_class::IprAccess                      0      0.00%    100.00% # Class of executed instruction
system.cpu.op_class::InstPrefetch                   0      0.00%    100.00% # Class of executed instruction
system.cpu.op_class::total                    4099972                       # Class of executed instruction
system.cpu.workload.numSyscalls                    93                       # Number of system calls
system.l2bus.snoop_filter.hit_multi_requests            0                       # Number of requests hitting in the snoop filter with multiple (>1) holders of the requested data.
system.l2bus.snoop_filter.hit_multi_snoops            0                       # Number of snoops hitting in the snoop filter with multiple (>1) holders of the requested data.
system.l2bus.snoop_filter.hit_single_requests        16908                       # Number of requests hitting in the snoop filter with a single holder of the requested data.
system.l2bus.snoop_filter.hit_single_snoops          443                       # Number of snoops hitting in the snoop filter with a single holder of the requested data.
system.l2bus.snoop_filter.tot_requests          35096                       # Total number of requests made to the snoop filter.
system.l2bus.snoop_filter.tot_snoops              443                       # Total number of snoops made to the snoop filter.
system.membus.snoop_filter.hit_multi_requests            0                       # Number of requests hitting in the snoop filter with multiple (>1) holders of the requested data.
system.membus.snoop_filter.hit_multi_snoops            0                       # Number of snoops hitting in the snoop filter with multiple (>1) holders of the requested data.
system.membus.snoop_filter.hit_single_requests         4027                       # Number of requests hitting in the snoop filter with a single holder of the requested data.
system.membus.snoop_filter.hit_single_snoops            0                       # Number of snoops hitting in the snoop filter with a single holder of the requested data.
system.membus.snoop_filter.tot_requests         16243                       # Total number of requests made to the snoop filter.
system.membus.snoop_filter.tot_snoops               0                       # Total number of snoops made to the snoop filter.
system.clk_domain.clock                          1000                       # Clock period in ticks
system.clk_domain.voltage_domain.voltage            1                       # Voltage in Volts
system.cpu.dcache.demand_hits::.cpu.data       715866                       # number of demand (read+write) hits
system.cpu.dcache.demand_hits::total           715866                       # number of demand (read+write) hits
system.cpu.dcache.overall_hits::.cpu.data       715866                       # number of overall hits
system.cpu.dcache.overall_hits::total          715866                       # number of overall hits
system.cpu.dcache.demand_misses::.cpu.data        15441                       # number of demand (read+write) misses
system.cpu.dcache.demand_misses::total          15441                       # number of demand (read+write) misses
system.cpu.dcache.overall_misses::.cpu.data        15441                       # number of overall misses
system.cpu.dcache.overall_misses::total         15441                       # number of overall misses
system.cpu.dcache.demand_miss_latency::.cpu.data   1240876000                       # number of demand (read+write) miss cycles
system.cpu.dcache.demand_miss_latency::total   1240876000                       # number of demand (read+write) miss cycles
system.cpu.dcache.overall_miss_latency::.cpu.data   1240876000                       # number of overall miss cycles
system.cpu.dcache.overall_miss_latency::total   1240876000                       # number of overall miss cycles
system.cpu.dcache.demand_accesses::.cpu.data       731307                       # number of demand (read+write) accesses
system.cpu.dcache.demand_accesses::total       731307                       # number of demand (read+write) accesses
system.cpu.dcache.overall_accesses::.cpu.data       731307                       # number of overall (read+write) accesses
system.cpu.dcache.overall_accesses::total       731307                       # number of overall (read+write) accesses
system.cpu.dcache.demand_miss_rate::.cpu.data     0.021114                       # miss rate for demand accesses
system.cpu.dcache.demand_miss_rate::total     0.021114                       # miss rate for demand accesses
system.cpu.dcache.overall_miss_rate::.cpu.data     0.021114                       # miss rate for overall accesses
system.cpu.dcache.overall_miss_rate::total     0.021114                       # miss rate for overall accesses
system.cpu.dcache.demand_avg_miss_latency::.cpu.data 80362.411761                       # average overall miss latency
system.cpu.dcache.demand_avg_miss_latency::total 80362.411761                       # average overall miss latency
system.cpu.dcache.overall_avg_miss_latency::.cpu.data 80362.411761                       # average overall miss latency
system.cpu.dcache.overall_avg_miss_latency::total 80362.411761                       # average overall miss latency
system.cpu.dcache.blocked_cycles::no_mshrs            0                       # number of cycles access was blocked
system.cpu.dcache.blocked_cycles::no_targets            0                       # number of cycles access was blocked
system.cpu.dcache.blocked::no_mshrs                 0                       # number of cycles access was blocked
system.cpu.dcache.blocked::no_targets               0                       # number of cycles access was blocked
system.cpu.dcache.avg_blocked_cycles::no_mshrs          nan                       # average number of cycles each access was blocked
system.cpu.dcache.avg_blocked_cycles::no_targets          nan                       # average number of cycles each access was blocked
system.cpu.dcache.writebacks::.writebacks         3050                       # number of writebacks
system.cpu.dcache.writebacks::total              3050                       # number of writebacks
system.cpu.dcache.demand_mshr_misses::.cpu.data        15441                       # number of demand (read+write) MSHR misses
system.cpu.dcache.demand_mshr_misses::total        15441                       # number of demand (read+write) MSHR misses
system.cpu.dcache.overall_mshr_misses::.cpu.data        15441                       # number of overall MSHR misses
system.cpu.dcache.overall_mshr_misses::total        15441                       # number of overall MSHR misses
system.cpu.dcache.demand_mshr_miss_latency::.cpu.data   1209994000                       # number of demand (read+write) MSHR miss cycles
system.cpu.dcache.demand_mshr_miss_latency::total   1209994000                       # number of demand (read+write) MSHR miss cycles
system.cpu.dcache.overall_mshr_miss_latency::.cpu.data   1209994000                       # number of overall MSHR miss cycles
system.cpu.dcache.overall_mshr_miss_latency::total   1209994000                       # number of overall MSHR miss cycles
system.cpu.dcache.demand_mshr_miss_rate::.cpu.data     0.021114                       # mshr miss rate for demand accesses
system.cpu.dcache.demand_mshr_miss_rate::total     0.021114                       # mshr miss rate for demand accesses
system.cpu.dcache.overall_mshr_miss_rate::.cpu.data     0.021114                       # mshr miss rate for overall accesses
system.cpu.dcache.overall_mshr_miss_rate::total     0.021114                       # mshr miss rate for overall accesses
system.cpu.dcache.demand_avg_mshr_miss_latency::.cpu.data 78362.411761                       # average overall mshr miss latency
system.cpu.dcache.demand_avg_mshr_miss_latency::total 78362.411761                       # average overall mshr miss latency
system.cpu.dcache.overall_avg_mshr_miss_latency::.cpu.data 78362.411761                       # average overall mshr miss latency
system.cpu.dcache.overall_avg_mshr_miss_latency::total 78362.411761                       # average overall mshr miss latency
system.cpu.dcache.replacements                  14417                       # number of replacements
system.cpu.dcache.ReadReq_hits::.cpu.data       515938                       # number of ReadReq hits
system.cpu.dcache.ReadReq_hits::total          515938                       # number of ReadReq hits
system.cpu.dcache.ReadReq_misses::.cpu.data        13072                       # number of ReadReq misses
system.cpu.dcache.ReadReq_misses::total         13072                       # number of ReadReq misses
system.cpu.dcache.ReadReq_miss_latency::.cpu.data   1046644000                       # number of ReadReq miss cycles
system.cpu.dcache.ReadReq_miss_latency::total   1046644000                       # number of ReadReq miss cycles
system.cpu.dcache.ReadReq_accesses::.cpu.data       529010                       # number of ReadReq accesses(hits+misses)
system.cpu.dcache.ReadReq_accesses::total       529010                       # number of ReadReq accesses(hits+misses)
system.cpu.dcache.ReadReq_miss_rate::.cpu.data     0.024710                       # miss rate for ReadReq accesses
system.cpu.dcache.ReadReq_miss_rate::total     0.024710                       # miss rate for ReadReq accesses
system.cpu.dcache.ReadReq_avg_miss_latency::.cpu.data 80067.625459                       # average ReadReq miss latency
system.cpu.dcache.ReadReq_avg_miss_latency::total 80067.625459                       # average ReadReq miss latency
system.cpu.dcache.ReadReq_mshr_misses::.cpu.data        13072                       # number of ReadReq MSHR misses
system.cpu.dcache.ReadReq_mshr_misses::total        13072                       # number of ReadReq MSHR misses
system.cpu.dcache.ReadReq_mshr_miss_latency::.cpu.data   1020500000                       # number of ReadReq MSHR miss cycles
system.cpu.dcache.ReadReq_mshr_miss_latency::total   1020500000                       # number of ReadReq MSHR miss cycles
system.cpu.dcache.ReadReq_mshr_miss_rate::.cpu.data     0.024710                       # mshr miss rate for ReadReq accesses
system.cpu.dcache.ReadReq_mshr_miss_rate::total     0.024710                       # mshr miss rate for ReadReq accesses
system.cpu.dcache.ReadReq_avg_mshr_miss_latency::.cpu.data 78067.625459                       # average ReadReq mshr miss latency
system.cpu.dcache.ReadReq_avg_mshr_miss_latency::total 78067.625459                       # average ReadReq mshr miss latency
system.cpu.dcache.WriteReq_hits::.cpu.data       199928                       # number of WriteReq hits
system.cpu.dcache.WriteReq_hits::total         199928                       # number of WriteReq hits
system.cpu.dcache.WriteReq_misses::.cpu.data         2369                       # number of WriteReq misses
system.cpu.dcache.WriteReq_misses::total         2369                       # number of WriteReq misses
system.cpu.dcache.WriteReq_miss_latency::.cpu.data    194232000                       # number of WriteReq miss cycles
system.cpu.dcache.WriteReq_miss_latency::total    194232000                       # number of WriteReq miss cycles
system.cpu.dcache.WriteReq_accesses::.cpu.data       202297                       # number of WriteReq accesses(hits+misses)
system.cpu.dcache.WriteReq_accesses::total       202297                       # number of WriteReq accesses(hits+misses)
system.cpu.dcache.WriteReq_miss_rate::.cpu.data     0.011711                       # miss rate for WriteReq accesses
system.cpu.dcache.WriteReq_miss_rate::total     0.011711                       # miss rate for WriteReq accesses
system.cpu.dcache.WriteReq_avg_miss_latency::.cpu.data 81989.024905                       # average WriteReq miss latency
system.cpu.dcache.WriteReq_avg_miss_latency::total 81989.024905                       # average WriteReq miss latency
system.cpu.dcache.WriteReq_mshr_misses::.cpu.data         2369                       # number of WriteReq MSHR misses
system.cpu.dcache.WriteReq_mshr_misses::total         2369                       # number of WriteReq MSHR misses
system.cpu.dcache.WriteReq_mshr_miss_latency::.cpu.data    189494000                       # number of WriteReq MSHR miss cycles
system.cpu.dcache.WriteReq_mshr_miss_latency::total    189494000                       # number of WriteReq MSHR miss cycles
system.cpu.dcache.WriteReq_mshr_miss_rate::.cpu.data     0.011711                       # mshr miss rate for WriteReq accesses
system.cpu.dcache.WriteReq_mshr_miss_rate::total     0.011711                       # mshr miss rate for WriteReq accesses
system.cpu.dcache.WriteReq_avg_mshr_miss_latency::.cpu.data 79989.024905                       # average WriteReq mshr miss latency
system.cpu.dcache.WriteReq_avg_mshr_miss_latency::total 79989.024905                       # average WriteReq mshr miss latency
system.cpu.dcache.power_state.pwrStateResidencyTicks::UNDEFINED   9184513000                       # Cumulative time (in ticks) in various power states
system.cpu.dcache.tags.tagsinuse           997.228372                       # Cycle average of tags in use
system.cpu.dcache.tags.total_refs              731307                       # Total number of references to valid blocks.
system.cpu.dcache.tags.sampled_refs             15441                       # Sample count of references to valid blocks.
system.cpu.dcache.tags.avg_refs             47.361376                       # Average number of references to valid blocks.
system.cpu.dcache.tags.warmup_cycle            218000                       # Cycle when the warmup percentage was hit.
system.cpu.dcache.tags.occ_blocks::.cpu.data   997.228372                       # Average occupied blocks per requestor
system.cpu.dcache.tags.occ_percent::.cpu.data     0.973856                       # Average percentage of cache occupancy
system.cpu.dcache.tags.occ_percent::total     0.973856                       # Average percentage of cache occupancy
system.cpu.dcache.tags.occ_task_id_blocks::1024         1024                       # Occupied blocks per task id
system.cpu.dcache.tags.age_task_id_blocks_1024::0           23                       # Occupied blocks per task id
system.cpu.dcache.tags.age_task_id_blocks_1024::1          126                       # Occupied blocks per task id
system.cpu.dcache.tags.age_task_id_blocks_1024::2          852                       # Occupied blocks per task id
system.cpu.dcache.tags.age_task_id_blocks_1024::3           23                       # Occupied blocks per task id
system.cpu.dcache.tags.occ_task_id_percent::1024            1                       # Percentage of cache occupancy per task id
system.cpu.dcache.tags.tag_accesses           1478055                       # Number of tag accesses
system.cpu.dcache.tags.data_accesses          1478055                       # Number of data accesses
system.cpu.dcache.tags.power_state.pwrStateResidencyTicks::UNDEFINED   9184513000                       # Cumulative time (in ticks) in various power states
system.cpu.dtb.rdAccesses                      529232                       # TLB accesses on read requests
system.cpu.dtb.wrAccesses                      202328                       # TLB accesses on write requests
system.cpu.dtb.rdMisses                          1501                       # TLB misses on read requests
system.cpu.dtb.wrMisses                           105                       # TLB misses on write requests
system.cpu.dtb.walker.power_state.pwrStateResidencyTicks::UNDEFINED   9184513000                       # Cumulative time (in ticks) in various power states
system.cpu.icache.demand_hits::.cpu.inst      3145637                       # number of demand (read+write) hits
system.cpu.icache.demand_hits::total          3145637                       # number of demand (read+write) hits
system.cpu.icache.overall_hits::.cpu.inst      3145637                       # number of overall hits
system.cpu.icache.overall_hits::total         3145637                       # number of overall hits
system.cpu.icache.demand_misses::.cpu.inst         2747                       # number of demand (read+write) misses
system.cpu.icache.demand_misses::total           2747                       # number of demand (read+write) misses
system.cpu.icache.overall_misses::.cpu.inst         2747                       # number of overall misses
system.cpu.icache.overall_misses::total          2747                       # number of overall misses
system.cpu.icache.demand_miss_latency::.cpu.inst    220691000                       # number of demand (read+write) miss cycles
system.cpu.icache.demand_miss_latency::total    220691000                       # number of demand (read+write) miss cycles
system.cpu.icache.overall_miss_latency::.cpu.inst    220691000                       # number of overall miss cycles
system.cpu.icache.overall_miss_latency::total    220691000                       # number of overall miss cycles
system.cpu.icache.demand_accesses::.cpu.inst      3148384                       # number of demand (read+write) accesses
system.cpu.icache.demand_accesses::total      3148384                       # number of demand (read+write) accesses
system.cpu.icache.overall_accesses::.cpu.inst      3148384                       # number of overall (read+write) accesses
system.cpu.icache.overall_accesses::total      3148384                       # number of overall (read+write) accesses
system.cpu.icache.demand_miss_rate::.cpu.inst     0.000873                       # miss rate for demand accesses
system.cpu.icache.demand_miss_rate::total     0.000873                       # miss rate for demand accesses
system.cpu.icache.overall_miss_rate::.cpu.inst     0.000873                       # miss rate for overall accesses
system.cpu.icache.overall_miss_rate::total     0.000873                       # miss rate for overall accesses
system.cpu.icache.demand_avg_miss_latency::.cpu.inst 80338.915180                       # average overall miss latency
system.cpu.icache.demand_avg_miss_latency::total 80338.915180                       # average overall miss latency
system.cpu.icache.overall_avg_miss_latency::.cpu.inst 80338.915180                       # average overall miss latency
system.cpu.icache.overall_avg_miss_latency::total 80338.915180                       # average overall miss latency
system.cpu.icache.blocked_cycles::no_mshrs            0                       # number of cycles access was blocked
system.cpu.icache.blocked_cycles::no_targets            0                       # number of cycles access was blocked
system.cpu.icache.blocked::no_mshrs                 0                       # number of cycles access was blocked
system.cpu.icache.blocked::no_targets               0                       # number of cycles access was blocked
system.cpu.icache.avg_blocked_cycles::no_mshrs          nan                       # average number of cycles each access was blocked
system.cpu.icache.avg_blocked_cycles::no_targets          nan                       # average number of cycles each access was blocked
system.cpu.icache.demand_mshr_misses::.cpu.inst         2747                       # number of demand (read+write) MSHR misses
system.cpu.icache.demand_mshr_misses::total         2747                       # number of demand (read+write) MSHR misses
system.cpu.icache.overall_mshr_misses::.cpu.inst         2747                       # number of overall MSHR misses
system.cpu.icache.overall_mshr_misses::total         2747                       # number of overall MSHR misses
system.cpu.icache.demand_mshr_miss_latency::.cpu.inst    215197000                       # number of demand (read+write) MSHR miss cycles
system.cpu.icache.demand_mshr_miss_latency::total    215197000                       # number of demand (read+write) MSHR miss cycles
system.cpu.icache.overall_mshr_miss_latency::.cpu.inst    215197000                       # number of overall MSHR miss cycles
system.cpu.icache.overall_mshr_miss_latency::total    215197000                       # number of overall MSHR miss cycles
system.cpu.icache.demand_mshr_miss_rate::.cpu.inst     0.000873                       # mshr miss rate for demand accesses
system.cpu.icache.demand_mshr_miss_rate::total     0.000873                       # mshr miss rate for demand accesses
system.cpu.icache.overall_mshr_miss_rate::.cpu.inst     0.000873                       # mshr miss rate for overall accesses
system.cpu.icache.overall_mshr_miss_rate::total     0.000873                       # mshr miss rate for overall accesses
system.cpu.icache.demand_avg_mshr_miss_latency::.cpu.inst 78338.915180                       # average overall mshr miss latency
system.cpu.icache.demand_avg_mshr_miss_latency::total 78338.915180                       # average overall mshr miss latency
system.cpu.icache.overall_avg_mshr_miss_latency::.cpu.inst 78338.915180                       # average overall mshr miss latency
system.cpu.icache.overall_avg_mshr_miss_latency::total 78338.915180                       # average overall mshr miss latency
system.cpu.icache.replacements                   2491                       # number of replacements
system.cpu.icache.ReadReq_hits::.cpu.inst      3145637                       # number of ReadReq hits
system.cpu.icache.ReadReq_hits::total         3145637                       # number of ReadReq hits
system.cpu.icache.ReadReq_misses::.cpu.inst         2747                       # number of ReadReq misses
system.cpu.icache.ReadReq_misses::total          2747                       # number of ReadReq misses
system.cpu.icache.ReadReq_miss_latency::.cpu.inst    220691000                       # number of ReadReq miss cycles
system.cpu.icache.ReadReq_miss_latency::total    220691000                       # number of ReadReq miss cycles
system.cpu.icache.ReadReq_accesses::.cpu.inst      3148384                       # number of ReadReq accesses(hits+misses)
system.cpu.icache.ReadReq_accesses::total      3148384                       # number of ReadReq accesses(hits+misses)
system.cpu.icache.ReadReq_miss_rate::.cpu.inst     0.000873                       # miss rate for ReadReq accesses
system.cpu.icache.ReadReq_miss_rate::total     0.000873                       # miss rate for ReadReq accesses
system.cpu.icache.ReadReq_avg_miss_latency::.cpu.inst 80338.915180                       # average ReadReq miss latency
system.cpu.icache.ReadReq_avg_miss_latency::total 80338.915180                       # average ReadReq miss latency
system.cpu.icache.ReadReq_mshr_misses::.cpu.inst         2747                       # number of ReadReq MSHR misses
system.cpu.icache.ReadReq_mshr_misses::total         2747                       # number of ReadReq MSHR misses
system.cpu.icache.ReadReq_mshr_miss_latency::.cpu.inst    215197000                       # number of ReadReq MSHR miss cycles
system.cpu.icache.ReadReq_mshr_miss_latency::total    215197000                       # number of ReadReq MSHR miss cycles
system.cpu.icache.ReadReq_mshr_miss_rate::.cpu.inst     0.000873                       # mshr miss rate for ReadReq accesses
system.cpu.icache.ReadReq_mshr_miss_rate::total     0.000873                       # mshr miss rate for ReadReq accesses
system.cpu.icache.ReadReq_avg_mshr_miss_latency::.cpu.inst 78338.915180                       # average ReadReq mshr miss latency
system.cpu.icache.ReadReq_avg_mshr_miss_latency::total 78338.915180                       # average ReadReq mshr miss latency
system.cpu.icache.power_state.pwrStateResidencyTicks::UNDEFINED   9184513000                       # Cumulative time (in ticks) in various power states
system.cpu.icache.tags.tagsinuse           252.733092                       # Cycle average of tags in use
system.cpu.icache.tags.total_refs             3148384                       # Total number of references to valid blocks.
system.cpu.icache.tags.sampled_refs              2747                       # Sample count of references to valid blocks.
system.cpu.icache.tags.avg_refs           1146.117219                       # Average number of references to valid blocks.
system.cpu.icache.tags.warmup_cycle            107000                       # Cycle when the warmup percentage was hit.
system.cpu.icache.tags.occ_blocks::.cpu.inst   252.733092                       # Average occupied blocks per requestor
system.cpu.icache.tags.occ_percent::.cpu.inst     0.987239                       # Average percentage of cache occupancy
system.cpu.icache.tags.occ_percent::total     0.987239                       # Average percentage of cache occupancy
system.cpu.icache.tags.occ_task_id_blocks::1024          256                       # Occupied blocks per task id
system.cpu.icache.tags.age_task_id_blocks_1024::0           49                       # Occupied blocks per task id
system.cpu.icache.tags.age_task_id_blocks_1024::1          109                       # Occupied blocks per task id
system.cpu.icache.tags.age_task_id_blocks_1024::2           91                       # Occupied blocks per task id
system.cpu.icache.tags.age_task_id_blocks_1024::3            7                       # Occupied blocks per task id
system.cpu.icache.tags.occ_task_id_percent::1024            1                       # Percentage of cache occupancy per task id
system.cpu.icache.tags.tag_accesses           6299515                       # Number of tag accesses
system.cpu.icache.tags.data_accesses          6299515                       # Number of data accesses
system.cpu.icache.tags.power_state.pwrStateResidencyTicks::UNDEFINED   9184513000                       # Cumulative time (in ticks) in various power states
system.cpu.interrupts.clk_domain.clock          16000                       # Clock period in ticks
system.cpu.itb.rdAccesses                           0                       # TLB accesses on read requests
system.cpu.itb.wrAccesses                     3148514                       # TLB accesses on write requests
system.cpu.itb.rdMisses                             0                       # TLB misses on read requests
system.cpu.itb.wrMisses                           466                       # TLB misses on write requests
system.cpu.itb.walker.power_state.pwrStateResidencyTicks::UNDEFINED   9184513000                       # Cumulative time (in ticks) in various power states
system.cpu.power_state.pwrStateResidencyTicks::ON   9184513000                       # Cumulative time (in ticks) in various power states
system.cpu.thread_0.numInsts                        0                       # Number of Instructions committed
system.cpu.thread_0.numOps                          0                       # Number of Ops committed
system.cpu.thread_0.numMemRefs                      0                       # Number of Memory References
system.l2bus.trans_dist::ReadResp               15819                       # Transaction distribution
system.l2bus.trans_dist::WritebackDirty          3939                       # Transaction distribution
system.l2bus.trans_dist::CleanEvict             17088                       # Transaction distribution
system.l2bus.trans_dist::ReadExReq               2369                       # Transaction distribution
system.l2bus.trans_dist::ReadExResp              2369                       # Transaction distribution
system.l2bus.trans_dist::ReadSharedReq          15819                       # Transaction distribution
system.l2bus.pkt_count_system.cpu.icache.mem_side_port::system.l2cache.cpu_side_port         7985                       # Packet count per connected requestor and responder (bytes)
system.l2bus.pkt_count_system.cpu.dcache.mem_side_port::system.l2cache.cpu_side_port        45299                       # Packet count per connected requestor and responder (bytes)
system.l2bus.pkt_count::total                   53284                       # Packet count per connected requestor and responder (bytes)
system.l2bus.pkt_size_system.cpu.icache.mem_side_port::system.l2cache.cpu_side_port       175808                       # Cumulative packet size per connected requestor and responder (bytes)
system.l2bus.pkt_size_system.cpu.dcache.mem_side_port::system.l2cache.cpu_side_port      1183424                       # Cumulative packet size per connected requestor and responder (bytes)
system.l2bus.pkt_size::total                  1359232                       # Cumulative packet size per connected requestor and responder (bytes)
system.l2bus.snoops                              4119                       # Total snoops (count)
system.l2bus.snoopTraffic                       56896                       # Total snoop traffic (bytes)
system.l2bus.snoop_fanout::samples              22307                       # Request fanout histogram
system.l2bus.snoop_fanout::mean              0.019859                       # Request fanout histogram
system.l2bus.snoop_fanout::stdev             0.139520                       # Request fanout histogram
system.l2bus.snoop_fanout::underflows               0      0.00%      0.00% # Request fanout histogram
system.l2bus.snoop_fanout::0                    21864     98.01%     98.01% # Request fanout histogram
system.l2bus.snoop_fanout::1                      443      1.99%    100.00% # Request fanout histogram
system.l2bus.snoop_fanout::2                        0      0.00%    100.00% # Request fanout histogram
system.l2bus.snoop_fanout::overflows                0      0.00%    100.00% # Request fanout histogram
system.l2bus.snoop_fanout::min_value                0                       # Request fanout histogram
system.l2bus.snoop_fanout::max_value                1                       # Request fanout histogram
system.l2bus.snoop_fanout::total                22307                       # Request fanout histogram
system.l2bus.power_state.pwrStateResidencyTicks::UNDEFINED   9184513000                       # Cumulative time (in ticks) in various power states
system.l2bus.reqLayer0.occupancy             41196000                       # Layer occupancy (ticks)
system.l2bus.reqLayer0.utilization                0.4                       # Layer utilization (%)
system.l2bus.respLayer0.occupancy             8241000                       # Layer occupancy (ticks)
system.l2bus.respLayer0.utilization               0.1                       # Layer utilization (%)
system.l2bus.respLayer1.occupancy            46323000                       # Layer occupancy (ticks)
system.l2bus.respLayer1.utilization               0.5                       # Layer utilization (%)
system.l2cache.demand_hits::.cpu.inst             836                       # number of demand (read+write) hits
system.l2cache.demand_hits::.cpu.data            5136                       # number of demand (read+write) hits
system.l2cache.demand_hits::total                5972                       # number of demand (read+write) hits
system.l2cache.overall_hits::.cpu.inst            836                       # number of overall hits
system.l2cache.overall_hits::.cpu.data           5136                       # number of overall hits
system.l2cache.overall_hits::total               5972                       # number of overall hits
system.l2cache.demand_misses::.cpu.inst          1911                       # number of demand (read+write) misses
system.l2cache.demand_misses::.cpu.data         10305                       # number of demand (read+write) misses
system.l2cache.demand_misses::total             12216                       # number of demand (read+write) misses
system.l2cache.overall_misses::.cpu.inst         1911                       # number of overall misses
system.l2cache.overall_misses::.cpu.data        10305                       # number of overall misses
system.l2cache.overall_misses::total            12216                       # number of overall misses
system.l2cache.demand_miss_latency::.cpu.inst    189380000                       # number of demand (read+write) miss cycles
system.l2cache.demand_miss_latency::.cpu.data   1055814000                       # number of demand (read+write) miss cycles
system.l2cache.demand_miss_latency::total   1245194000                       # number of demand (read+write) miss cycles
system.l2cache.overall_miss_latency::.cpu.inst    189380000                       # number of overall miss cycles
system.l2cache.overall_miss_latency::.cpu.data   1055814000                       # number of overall miss cycles
system.l2cache.overall_miss_latency::total   1245194000                       # number of overall miss cycles
system.l2cache.demand_accesses::.cpu.inst         2747                       # number of demand (read+write) accesses
system.l2cache.demand_accesses::.cpu.data        15441                       # number of demand (read+write) accesses
system.l2cache.demand_accesses::total           18188                       # number of demand (read+write) accesses
system.l2cache.overall_accesses::.cpu.inst         2747                       # number of overall (read+write) accesses
system.l2cache.overall_accesses::.cpu.data        15441                       # number of overall (read+write) accesses
system.l2cache.overall_accesses::total          18188                       # number of overall (read+write) accesses
system.l2cache.demand_miss_rate::.cpu.inst     0.695668                       # miss rate for demand accesses
system.l2cache.demand_miss_rate::.cpu.data     0.667379                       # miss rate for demand accesses
system.l2cache.demand_miss_rate::total       0.671652                       # miss rate for demand accesses
system.l2cache.overall_miss_rate::.cpu.inst     0.695668                       # miss rate for overall accesses
system.l2cache.overall_miss_rate::.cpu.data     0.667379                       # miss rate for overall accesses
system.l2cache.overall_miss_rate::total      0.671652                       # miss rate for overall accesses
system.l2cache.demand_avg_miss_latency::.cpu.inst 99099.947671                       # average overall miss latency
system.l2cache.demand_avg_miss_latency::.cpu.data 102456.477438                       # average overall miss latency
system.l2cache.demand_avg_miss_latency::total 101931.401441                       # average overall miss latency
system.l2cache.overall_avg_miss_latency::.cpu.inst 99099.947671                       # average overall miss latency
system.l2cache.overall_avg_miss_latency::.cpu.data 102456.477438                       # average overall miss latency
system.l2cache.overall_avg_miss_latency::total 101931.401441                       # average overall miss latency
system.l2cache.blocked_cycles::no_mshrs             0                       # number of cycles access was blocked
system.l2cache.blocked_cycles::no_targets            0                       # number of cycles access was blocked
system.l2cache.blocked::no_mshrs                    0                       # number of cycles access was blocked
system.l2cache.blocked::no_targets                  0                       # number of cycles access was blocked
system.l2cache.avg_blocked_cycles::no_mshrs          nan                       # average number of cycles each access was blocked
system.l2cache.avg_blocked_cycles::no_targets          nan                       # average number of cycles each access was blocked
system.l2cache.writebacks::.writebacks            889                       # number of writebacks
system.l2cache.writebacks::total                  889                       # number of writebacks
system.l2cache.demand_mshr_misses::.cpu.inst         1911                       # number of demand (read+write) MSHR misses
system.l2cache.demand_mshr_misses::.cpu.data        10305                       # number of demand (read+write) MSHR misses
system.l2cache.demand_mshr_misses::total        12216                       # number of demand (read+write) MSHR misses
system.l2cache.overall_mshr_misses::.cpu.inst         1911                       # number of overall MSHR misses
system.l2cache.overall_mshr_misses::.cpu.data        10305                       # number of overall MSHR misses
system.l2cache.overall_mshr_misses::total        12216                       # number of overall MSHR misses
system.l2cache.demand_mshr_miss_latency::.cpu.inst    151160000                       # number of demand (read+write) MSHR miss cycles
system.l2cache.demand_mshr_miss_latency::.cpu.data    849714000                       # number of demand (read+write) MSHR miss cycles
system.l2cache.demand_mshr_miss_latency::total   1000874000                       # number of demand (read+write) MSHR miss cycles
system.l2cache.overall_mshr_miss_latency::.cpu.inst    151160000                       # number of overall MSHR miss cycles
system.l2cache.overall_mshr_miss_latency::.cpu.data    849714000                       # number of overall MSHR miss cycles
system.l2cache.overall_mshr_miss_latency::total   1000874000                       # number of overall MSHR miss cycles
system.l2cache.demand_mshr_miss_rate::.cpu.inst     0.695668                       # mshr miss rate for demand accesses
system.l2cache.demand_mshr_miss_rate::.cpu.data     0.667379                       # mshr miss rate for demand accesses
system.l2cache.demand_mshr_miss_rate::total     0.671652                       # mshr miss rate for demand accesses
system.l2cache.overall_mshr_miss_rate::.cpu.inst     0.695668                       # mshr miss rate for overall accesses
system.l2cache.overall_mshr_miss_rate::.cpu.data     0.667379                       # mshr miss rate for overall accesses
system.l2cache.overall_mshr_miss_rate::total     0.671652                       # mshr miss rate for overall accesses
system.l2cache.demand_avg_mshr_miss_latency::.cpu.inst 79099.947671                       # average overall mshr miss latency
system.l2cache.demand_avg_mshr_miss_latency::.cpu.data 82456.477438                       # average overall mshr miss latency
system.l2cache.demand_avg_mshr_miss_latency::total 81931.401441                       # average overall mshr miss latency
system.l2cache.overall_avg_mshr_miss_latency::.cpu.inst 79099.947671                       # average overall mshr miss latency
system.l2cache.overall_avg_mshr_miss_latency::.cpu.data 82456.477438                       # average overall mshr miss latency
system.l2cache.overall_avg_mshr_miss_latency::total 81931.401441                       # average overall mshr miss latency
system.l2cache.replacements                      3862                       # number of replacements
system.l2cache.WritebackDirty_hits::.writebacks         3050                       # number of WritebackDirty hits
system.l2cache.WritebackDirty_hits::total         3050                       # number of WritebackDirty hits
system.l2cache.WritebackDirty_accesses::.writebacks         3050                       # number of WritebackDirty accesses(hits+misses)
system.l2cache.WritebackDirty_accesses::total         3050                       # number of WritebackDirty accesses(hits+misses)
system.l2cache.CleanEvict_mshr_misses::.writebacks          351                       # number of CleanEvict MSHR misses
system.l2cache.CleanEvict_mshr_misses::total          351                       # number of CleanEvict MSHR misses
system.l2cache.CleanEvict_mshr_miss_rate::.writebacks          inf                       # mshr miss rate for CleanEvict accesses
system.l2cache.CleanEvict_mshr_miss_rate::total          inf                       # mshr miss rate for CleanEvict accesses
system.l2cache.ReadExReq_hits::.cpu.data          666                       # number of ReadExReq hits
system.l2cache.ReadExReq_hits::total              666                       # number of ReadExReq hits
system.l2cache.ReadExReq_misses::.cpu.data         1703                       # number of ReadExReq misses
system.l2cache.ReadExReq_misses::total           1703                       # number of ReadExReq misses
system.l2cache.ReadExReq_miss_latency::.cpu.data    168400000                       # number of ReadExReq miss cycles
system.l2cache.ReadExReq_miss_latency::total    168400000                       # number of ReadExReq miss cycles
system.l2cache.ReadExReq_accesses::.cpu.data         2369                       # number of ReadExReq accesses(hits+misses)
system.l2cache.ReadExReq_accesses::total         2369                       # number of ReadExReq accesses(hits+misses)
system.l2cache.ReadExReq_miss_rate::.cpu.data     0.718869                       # miss rate for ReadExReq accesses
system.l2cache.ReadExReq_miss_rate::total     0.718869                       # miss rate for ReadExReq accesses
system.l2cache.ReadExReq_avg_miss_latency::.cpu.data 98884.321785                       # average ReadExReq miss latency
system.l2cache.ReadExReq_avg_miss_latency::total 98884.321785                       # average ReadExReq miss latency
system.l2cache.ReadExReq_mshr_misses::.cpu.data         1703                       # number of ReadExReq MSHR misses
system.l2cache.ReadExReq_mshr_misses::total         1703                       # number of ReadExReq MSHR misses
system.l2cache.ReadExReq_mshr_miss_latency::.cpu.data    134340000                       # number of ReadExReq MSHR miss cycles
system.l2cache.ReadExReq_mshr_miss_latency::total    134340000                       # number of ReadExReq MSHR miss cycles
system.l2cache.ReadExReq_mshr_miss_rate::.cpu.data     0.718869                       # mshr miss rate for ReadExReq accesses
system.l2cache.ReadExReq_mshr_miss_rate::total     0.718869                       # mshr miss rate for ReadExReq accesses
system.l2cache.ReadExReq_avg_mshr_miss_latency::.cpu.data 78884.321785                       # average ReadExReq mshr miss latency
system.l2cache.ReadExReq_avg_mshr_miss_latency::total 78884.321785                       # average ReadExReq mshr miss latency
system.l2cache.ReadSharedReq_hits::.cpu.inst          836                       # number of ReadSharedReq hits
system.l2cache.ReadSharedReq_hits::.cpu.data         4470                       # number of ReadSharedReq hits
system.l2cache.ReadSharedReq_hits::total         5306                       # number of ReadSharedReq hits
system.l2cache.ReadSharedReq_misses::.cpu.inst         1911                       # number of ReadSharedReq misses
system.l2cache.ReadSharedReq_misses::.cpu.data         8602                       # number of ReadSharedReq misses
system.l2cache.ReadSharedReq_misses::total        10513                       # number of ReadSharedReq misses
system.l2cache.ReadSharedReq_miss_latency::.cpu.inst    189380000                       # number of ReadSharedReq miss cycles
system.l2cache.ReadSharedReq_miss_latency::.cpu.data    887414000                       # number of ReadSharedReq miss cycles
system.l2cache.ReadSharedReq_miss_latency::total   1076794000                       # number of ReadSharedReq miss cycles
system.l2cache.ReadSharedReq_accesses::.cpu.inst         2747                       # number of ReadSharedReq accesses(hits+misses)
system.l2cache.ReadSharedReq_accesses::.cpu.data        13072                       # number of ReadSharedReq accesses(hits+misses)
system.l2cache.ReadSharedReq_accesses::total        15819                       # number of ReadSharedReq accesses(hits+misses)
system.l2cache.ReadSharedReq_miss_rate::.cpu.inst     0.695668                       # miss rate for ReadSharedReq accesses
system.l2cache.ReadSharedReq_miss_rate::.cpu.data     0.658048                       # miss rate for ReadSharedReq accesses
system.l2cache.ReadSharedReq_miss_rate::total     0.664581                       # miss rate for ReadSharedReq accesses
system.l2cache.ReadSharedReq_avg_miss_latency::.cpu.inst 99099.947671                       # average ReadSharedReq miss latency
system.l2cache.ReadSharedReq_avg_miss_latency::.cpu.data 103163.682864                       # average ReadSharedReq miss latency
system.l2cache.ReadSharedReq_avg_miss_latency::total 102424.997622                       # average ReadSharedReq miss latency
system.l2cache.ReadSharedReq_mshr_misses::.cpu.inst         1911                       # number of ReadSharedReq MSHR misses
system.l2cache.ReadSharedReq_mshr_misses::.cpu.data         8602                       # number of ReadSharedReq MSHR misses
system.l2cache.ReadSharedReq_mshr_misses::total        10513                       # number of ReadSharedReq MSHR misses
system.l2cache.ReadSharedReq_mshr_miss_latency::.cpu.inst    151160000                       # number of ReadSharedReq MSHR miss cycles
system.l2cache.ReadSharedReq_mshr_miss_latency::.cpu.data    715374000                       # number of ReadSharedReq MSHR miss cycles
system.l2cache.ReadSharedReq_mshr_miss_latency::total    866534000                       # number of ReadSharedReq MSHR miss cycles
system.l2cache.ReadSharedReq_mshr_miss_rate::.cpu.inst     0.695668                       # mshr miss rate for ReadSharedReq accesses
system.l2cache.ReadSharedReq_mshr_miss_rate::.cpu.data     0.658048                       # mshr miss rate for ReadSharedReq accesses
system.l2cache.ReadSharedReq_mshr_miss_rate::total     0.664581                       # mshr miss rate for ReadSharedReq accesses
system.l2cache.ReadSharedReq_avg_mshr_miss_latency::.cpu.inst 79099.947671                       # average ReadSharedReq mshr miss latency
system.l2cache.ReadSharedReq_avg_mshr_miss_latency::.cpu.data 83163.682864                       # average ReadSharedReq mshr miss latency
system.l2cache.ReadSharedReq_avg_mshr_miss_latency::total 82424.997622                       # average ReadSharedReq mshr miss latency
system.l2cache.power_state.pwrStateResidencyTicks::UNDEFINED   9184513000                       # Cumulative time (in ticks) in various power states
system.l2cache.replacement_policy.totalBypasses          257                       # Total number of cache bypasses
system.l2cache.replacement_policy.effectiveBypasses            1                       # Bypasses that correctly skipped non-reused blocks
system.l2cache.replacement_policy.ineffectiveBypasses           97                       # Bypasses that incorrectly skipped requested blocks
system.l2cache.replacement_policy.virtualEffectiveBypasses            4                       # Virtual bypasses correctly predicting non-reused blocks
system.l2cache.replacement_policy.virtualIneffectiveBypasses          511                       # Virtual bypasses incorrectly predicting requested blocks
system.l2cache.tags.tagsinuse             6022.647006                       # Cycle average of tags in use
system.l2cache.tags.total_refs                  34488                       # Total number of references to valid blocks.
system.l2cache.tags.sampled_refs                12040                       # Sample count of references to valid blocks.
system.l2cache.tags.avg_refs                 2.864452                       # Average number of references to valid blocks.
system.l2cache.tags.warmup_cycle                86000                       # Cycle when the warmup percentage was hit.
system.l2cache.tags.occ_blocks::.writebacks    52.267052                       # Average occupied blocks per requestor
system.l2cache.tags.occ_blocks::.cpu.inst   572.836649                       # Average occupied blocks per requestor
system.l2cache.tags.occ_blocks::.cpu.data  5397.543304                       # Average occupied blocks per requestor
system.l2cache.tags.occ_percent::.writebacks     0.006380                       # Average percentage of cache occupancy
system.l2cache.tags.occ_percent::.cpu.inst     0.069926                       # Average percentage of cache occupancy
system.l2cache.tags.occ_percent::.cpu.data     0.658880                       # Average percentage of cache occupancy
system.l2cache.tags.occ_percent::total       0.735186                       # Average percentage of cache occupancy
system.l2cache.tags.occ_task_id_blocks::1024         8178                       # Occupied blocks per task id
system.l2cache.tags.age_task_id_blocks_1024::0           55                       # Occupied blocks per task id
system.l2cache.tags.age_task_id_blocks_1024::1          157                       # Occupied blocks per task id
system.l2cache.tags.age_task_id_blocks_1024::2         2086                       # Occupied blocks per task id
system.l2cache.tags.age_task_id_blocks_1024::3         5880                       # Occupied blocks per task id
system.l2cache.tags.occ_task_id_percent::1024     0.998291                       # Percentage of cache occupancy per task id
system.l2cache.tags.tag_accesses               292808                       # Number of tag accesses
system.l2cache.tags.data_accesses              292808                       # Number of data accesses
system.l2cache.tags.power_state.pwrStateResidencyTicks::UNDEFINED   9184513000                       # Cumulative time (in ticks) in various power states
system.mem_ctrl.avgPriority_.writebacks::samples       889.00                       # Average QoS priority value for accepted requests
system.mem_ctrl.avgPriority_.cpu.inst::samples      1911.00                       # Average QoS priority value for accepted requests
system.mem_ctrl.avgPriority_.cpu.data::samples     10292.00                       # Average QoS priority value for accepted requests
system.mem_ctrl.priorityMinLatency       0.000000018750                       # per QoS priority minimum request to response latency (s)
system.mem_ctrl.priorityMaxLatency       0.006472735750                       # per QoS priority maximum request to response latency (s)
system.mem_ctrl.numReadWriteTurnArounds            50                       # Number of turnarounds from READ to WRITE
system.mem_ctrl.numWriteReadTurnArounds            50                       # Number of turnarounds from WRITE to READ
system.mem_ctrl.numStayReadState                27636                       # Number of times bus staying in READ state
system.mem_ctrl.numStayWriteState                 824                       # Number of times bus staying in WRITE state
system.mem_ctrl.readReqs                        12216                       # Number of read requests accepted
system.mem_ctrl.writeReqs                         889                       # Number of write requests accepted
system.mem_ctrl.readBursts                      12216                       # Number of controller read bursts, including those serviced by the write queue
system.mem_ctrl.writeBursts                       889                       # Number of controller write bursts, including those merged in the write queue
system.mem_ctrl.servicedByWrQ                      13                       # Number of controller read bursts serviced by the write queue
system.mem_ctrl.mergedWrBursts                      0                       # Number of controller write bursts merged with an existing one
system.mem_ctrl.neitherReadNorWriteReqs             0                       # Number of requests that are neither read nor write
system.mem_ctrl.avgRdQLen                        1.00                       # Average read queue length when enqueuing
system.mem_ctrl.avgWrQLen                       13.69                       # Average write queue length when enqueuing
system.mem_ctrl.numRdRetry                          0                       # Number of times read queue was full causing retry
system.mem_ctrl.numWrRetry                          0                       # Number of times write queue was full causing retry
system.mem_ctrl.readPktSize::0                      0                       # Read request sizes (log2)
system.mem_ctrl.readPktSize::1                      0                       # Read request sizes (log2)
system.mem_ctrl.readPktSize::2                      0                       # Read request sizes (log2)
system.mem_ctrl.readPktSize::3                      0                       # Read request sizes (log2)
system.mem_ctrl.readPktSize::4                      0                       # Read request sizes (log2)
system.mem_ctrl.readPktSize::5                      0                       # Read request sizes (log2)
system.mem_ctrl.readPktSize::6                  12216                       # Read request sizes (log2)
system.mem_ctrl.writePktSize::0                     0                       # Write request sizes (log2)
system.mem_ctrl.writePktSize::1                     0                       # Write request sizes (log2)
system.mem_ctrl.writePktSize::2                     0                       # Write request sizes (log2)
system.mem_ctrl.writePktSize::3                     0                       # Write request sizes (log2)
system.mem_ctrl.writePktSize::4                     0                       # Write request sizes (log2)
system.mem_ctrl.writePktSize::5                     0                       # Write request sizes (log2)
system.mem_ctrl.writePktSize::6                   889                       # Write request sizes (log2)
system.mem_ctrl.rdQLenPdf::0                    12203                       # What read queue length does an incoming req see
system.mem_ctrl.rdQLenPdf::1                        0                       # What read queue length does an incoming req see
system.mem_ctrl.rdQLenPdf::2                        0                       # What read queue length does an incoming req see
system.mem_ctrl.rdQLenPdf::3                        0                       # What read queue length does an incoming req see
system.mem_ctrl.rdQLenPdf::4                        0                       # What read queue length does an incoming req see
system.mem_ctrl.rdQLenPdf::5                        0                       # What read queue length does an incoming req see
system.mem_ctrl.rdQLenPdf::6                        0                       # What read queue length does an incoming req see
system.mem_ctrl.rdQLenPdf::7                        0                       # What read queue length does an incoming req see
system.mem_ctrl.rdQLenPdf::8                        0                       # What read queue length does an incoming req see
system.mem_ctrl.rdQLenPdf::9                        0                       # What read queue length does an incoming req see
system.mem_ctrl.rdQLenPdf::10                       0                       # What read queue length does an incoming req see
system.mem_ctrl.rdQLenPdf::11                       0                       # What read queue length does an incoming req see
system.mem_ctrl.rdQLenPdf::12                       0                       # What read queue length does an incoming req see
system.mem_ctrl.rdQLenPdf::13                       0                       # What read queue length does an incoming req see
system.mem_ctrl.rdQLenPdf::14                       0                       # What read queue length does an incoming req see
system.mem_ctrl.rdQLenPdf::15                       0                       # What read queue length does an incoming req see
system.mem_ctrl.rdQLenPdf::16                       0                       # What read queue length does an incoming req see
system.mem_ctrl.rdQLenPdf::17                       0                       # What read queue length does an incoming req see
system.mem_ctrl.rdQLenPdf::18                       0                       # What read queue length does an incoming req see
system.mem_ctrl.rdQLenPdf::19                       0                       # What read queue length does an incoming req see
system.mem_ctrl.rdQLenPdf::20                       0                       # What read queue length does an incoming req see
system.mem_ctrl.rdQLenPdf::21                       0                       # What read queue length does an incoming req see
system.mem_ctrl.rdQLenPdf::22                       0                       # What read queue length does an incoming req see
system.mem_ctrl.rdQLenPdf::23                       0                       # What read queue length does an incoming req see
system.mem_ctrl.rdQLenPdf::24                       0                       # What read queue length does an incoming req see
system.mem_ctrl.rdQLenPdf::25                       0                       # What read queue length does an incoming req see
system.mem_ctrl.rdQLenPdf::26                       0                       # What read queue length does an incoming req see
system.mem_ctrl.rdQLenPdf::27                       0                       # What read queue length does an incoming req see
system.mem_ctrl.rdQLenPdf::28                       0                       # What read queue length does an incoming req see
system.mem_ctrl.rdQLenPdf::29                       0                       # What read queue length does an incoming req see
system.mem_ctrl.rdQLenPdf::30                       0                       # What read queue length does an incoming req see
system.mem_ctrl.rdQLenPdf::31                       0                       # What read queue length does an incoming req see
system.mem_ctrl.wrQLenPdf::0                        1                       # What write queue length does an incoming req see
system.mem_ctrl.wrQLenPdf::1                        1                       # What write queue length does an incoming req see
system.mem_ctrl.wrQLenPdf::2                        1                       # What write queue length does an incoming req see
system.mem_ctrl.wrQLenPdf::3                        1                       # What write queue length does an incoming req see
system.mem_ctrl.wrQLenPdf::4                        1                       # What write queue length does an incoming req see
system.mem_ctrl.wrQLenPdf::5                        1                       # What write queue length does an incoming req see
system.mem_ctrl.wrQLenPdf::6                        1                       # What write queue length does an incoming req see
system.mem_ctrl.wrQLenPdf::7                        1                       # What write queue length does an incoming req see
system.mem_ctrl.wrQLenPdf::8                        1                       # What write queue length does an incoming req see
system.mem_ctrl.wrQLenPdf::9                        1                       # What write queue length does an incoming req see
system.mem_ctrl.wrQLenPdf::10                       1                       # What write queue length does an incoming req see
system.mem_ctrl.wrQLenPdf::11                       1                       # What write queue length does an incoming req see
system.mem_ctrl.wrQLenPdf::12                       1                       # What write queue length does an incoming req see
system.mem_ctrl.wrQLenPdf::13                       1                       # What write queue length does an incoming req see
system.mem_ctrl.wrQLenPdf::14                       1                       # What write queue length does an incoming req see
system.mem_ctrl.wrQLenPdf::15                      37                       # What write queue length does an incoming req see
system.mem_ctrl.wrQLenPdf::16                      37                       # What write queue length does an incoming req see
system.mem_ctrl.wrQLenPdf::17                      50                       # What write queue length does an incoming req see
system.mem_ctrl.wrQLenPdf::18                      50                       # What write queue length does an incoming req see
system.mem_ctrl.wrQLenPdf::19                      50                       # What write queue length does an incoming req see
system.mem_ctrl.wrQLenPdf::20                      50                       # What write queue length does an incoming req see
system.mem_ctrl.wrQLenPdf::21                      50                       # What write queue length does an incoming req see
system.mem_ctrl.wrQLenPdf::22                      50                       # What write queue length does an incoming req see
system.mem_ctrl.wrQLenPdf::23                      50                       # What write queue length does an incoming req see
system.mem_ctrl.wrQLenPdf::24                      50                       # What write queue length does an incoming req see
system.mem_ctrl.wrQLenPdf::25                      50                       # What write queue length does an incoming req see
system.mem_ctrl.wrQLenPdf::26                      50                       # What write queue length does an incoming req see
system.mem_ctrl.wrQLenPdf::27                      50                       # What write queue length does an incoming req see
system.mem_ctrl.wrQLenPdf::28                      50                       # What write queue length does an incoming req see
system.mem_ctrl.wrQLenPdf::29                      50                       # What write queue length does an incoming req see
system.mem_ctrl.wrQLenPdf::30                      50                       # What write queue length does an incoming req see
system.mem_ctrl.wrQLenPdf::31                      50                       # What write queue length does an incoming req see
system.mem_ctrl.wrQLenPdf::32                      50                       # What write queue length does an incoming req see
system.mem_ctrl.wrQLenPdf::33                       0                       # What write queue length does an incoming req see
system.mem_ctrl.wrQLenPdf::34                       0                       # What write queue length does an incoming req see
system.mem_ctrl.wrQLenPdf::35                       0                       # What write queue length does an incoming req see
system.mem_ctrl.wrQLenPdf::36                       0                       # What write queue length does an incoming req see
system.mem_ctrl.wrQLenPdf::37                       0                       # What write queue length does an incoming req see
system.mem_ctrl.wrQLenPdf::38                       0                       # What write queue length does an incoming req see
system.mem_ctrl.wrQLenPdf::39                       0                       # What write queue length does an incoming req see
system.mem_ctrl.wrQLenPdf::40                       0                       # What write queue length does an incoming req see
system.mem_ctrl.wrQLenPdf::41                       0                       # What write queue length does an incoming req see
system.mem_ctrl.wrQLenPdf::42                       0                       # What write queue length does an incoming req see
system.mem_ctrl.wrQLenPdf::43                       0                       # What write queue length does an incoming req see
system.mem_ctrl.wrQLenPdf::44                       0                       # What write queue length does an incoming req see
system.mem_ctrl.wrQLenPdf::45                       0                       # What write queue length does an incoming req see
system.mem_ctrl.wrQLenPdf::46                       0                       # What write queue length does an incoming req see
system.mem_ctrl.wrQLenPdf::47                       0                       # What write queue length does an incoming req see
system.mem_ctrl.wrQLenPdf::48                       0                       # What write queue length does an incoming req see
system.mem_ctrl.wrQLenPdf::49                       0                       # What write queue length does an incoming req see
system.mem_ctrl.wrQLenPdf::50                       0                       # What write queue length does an incoming req see
system.mem_ctrl.wrQLenPdf::51                       0                       # What write queue length does an incoming req see
system.mem_ctrl.wrQLenPdf::52                       0                       # What write queue length does an incoming req see
system.mem_ctrl.wrQLenPdf::53                       0                       # What write queue length does an incoming req see
system.mem_ctrl.wrQLenPdf::54                       0                       # What write queue length does an incoming req see
system.mem_ctrl.wrQLenPdf::55                       0                       # What write queue length does an incoming req see
system.mem_ctrl.wrQLenPdf::56                       0                       # What write queue length does an incoming req see
system.mem_ctrl.wrQLenPdf::57                       0                       # What write queue length does an incoming req see
system.mem_ctrl.wrQLenPdf::58                       0                       # What write queue length does an incoming req see
system.mem_ctrl.wrQLenPdf::59                       0                       # What write queue length does an incoming req see
system.mem_ctrl.wrQLenPdf::60                       0                       # What write queue length does an incoming req see
system.mem_ctrl.wrQLenPdf::61                       0                       # What write queue length does an incoming req see
system.mem_ctrl.wrQLenPdf::62                       0                       # What write queue length does an incoming req see
system.mem_ctrl.wrQLenPdf::63                       0                       # What write queue length does an incoming req see
system.mem_ctrl.rdPerTurnAround::samples           50                       # Reads before turning the bus around for writes
system.mem_ctrl.rdPerTurnAround::mean      244.040000                       # Reads before turning the bus around for writes
system.mem_ctrl.rdPerTurnAround::gmean      94.777766                       # Reads before turning the bus around for writes
system.mem_ctrl.rdPerTurnAround::stdev    1000.948305                       # Reads before turning the bus around for writes
system.mem_ctrl.rdPerTurnAround::0-255             47     94.00%     94.00% # Reads before turning the bus around for writes
system.mem_ctrl.rdPerTurnAround::256-511            2      4.00%     98.00% # Reads before turning the bus around for writes
system.mem_ctrl.rdPerTurnAround::6912-7167            1      2.00%    100.00% # Reads before turning the bus around for writes
system.mem_ctrl.rdPerTurnAround::total             50                       # Reads before turning the bus around for writes
system.mem_ctrl.wrPerTurnAround::samples           50                       # Writes before turning the bus around for reads
system.mem_ctrl.wrPerTurnAround::mean       17.440000                       # Writes before turning the bus around for reads
system.mem_ctrl.wrPerTurnAround::gmean      17.416055                       # Writes before turning the bus around for reads
system.mem_ctrl.wrPerTurnAround::stdev       0.907115                       # Writes before turning the bus around for reads
system.mem_ctrl.wrPerTurnAround::16                14     28.00%     28.00% # Writes before turning the bus around for reads
system.mem_ctrl.wrPerTurnAround::18                36     72.00%    100.00% # Writes before turning the bus around for reads
system.mem_ctrl.wrPerTurnAround::total             50                       # Writes before turning the bus around for reads
system.mem_ctrl.bytesReadWrQ                      832                       # Total number of bytes read from write queue
system.mem_ctrl.bytesReadSys                   781824                       # Total read bytes from the system interface side
system.mem_ctrl.bytesWrittenSys                 56896                       # Total written bytes from the system interface side
system.mem_ctrl.avgRdBWSys                      85.12                       # Average system read bandwidth in MiByte/s
system.mem_ctrl.avgWrBWSys                       6.19                       # Average system write bandwidth in MiByte/s
system.mem_ctrl.totGap                     9184333000                       # Total gap between requests
system.mem_ctrl.avgGap                      700826.63                       # Average gap between requests
system.mem_ctrl.requestorReadBytes::.cpu.inst       122304                       # Per-requestor bytes read from memory
system.mem_ctrl.requestorReadBytes::.cpu.data       658688                       # Per-requestor bytes read from memory
system.mem_ctrl.requestorWriteBytes::.writebacks        55808                       # Per-requestor bytes write to memory
system.mem_ctrl.requestorReadRate::.cpu.inst 13316329.347021447495                       # Per-requestor bytes read from memory rate (Bytes/sec)
system.mem_ctrl.requestorReadRate::.cpu.data 71717248.372341573238                       # Per-requestor bytes read from memory rate (Bytes/sec)
system.mem_ctrl.requestorWriteRate::.writebacks 6076315.641341026872                       # Per-requestor bytes write to memory rate (Bytes/sec)
system.mem_ctrl.requestorReadAccesses::.cpu.inst         1911                       # Per-requestor read serviced memory accesses
system.mem_ctrl.requestorReadAccesses::.cpu.data        10305                       # Per-requestor read serviced memory accesses
system.mem_ctrl.requestorWriteAccesses::.writebacks          889                       # Per-requestor write serviced memory accesses
system.mem_ctrl.requestorReadTotalLat::.cpu.inst     53032500                       # Per-requestor read total memory access latency
system.mem_ctrl.requestorReadTotalLat::.cpu.data    320283500                       # Per-requestor read total memory access latency
system.mem_ctrl.requestorWriteTotalLat::.writebacks 122587854000                       # Per-requestor write total memory access latency
system.mem_ctrl.requestorReadAvgLat::.cpu.inst     27751.18                       # Per-requestor read average memory access latency
system.mem_ctrl.requestorReadAvgLat::.cpu.data     31080.40                       # Per-requestor read average memory access latency
system.mem_ctrl.requestorWriteAvgLat::.writebacks 137894098.99                       # Per-requestor write average memory access latency
system.mem_ctrl.dram.bytes_read::.cpu.inst       122304                       # Number of bytes read from this memory
system.mem_ctrl.dram.bytes_read::.cpu.data       659520                       # Number of bytes read from this memory
system.mem_ctrl.dram.bytes_read::total         781824                       # Number of bytes read from this memory
system.mem_ctrl.dram.bytes_inst_read::.cpu.inst       122304                       # Number of instructions bytes read from this memory
system.mem_ctrl.dram.bytes_inst_read::total       122304                       # Number of instructions bytes read from this memory
system.mem_ctrl.dram.bytes_written::.writebacks        56896                       # Number of bytes written to this memory
system.mem_ctrl.dram.bytes_written::total        56896                       # Number of bytes written to this memory
system.mem_ctrl.dram.num_reads::.cpu.inst         1911                       # Number of read requests responded to by this memory
system.mem_ctrl.dram.num_reads::.cpu.data        10305                       # Number of read requests responded to by this memory
system.mem_ctrl.dram.num_reads::total           12216                       # Number of read requests responded to by this memory
system.mem_ctrl.dram.num_writes::.writebacks          889                       # Number of write requests responded to by this memory
system.mem_ctrl.dram.num_writes::total            889                       # Number of write requests responded to by this memory
system.mem_ctrl.dram.bw_read::.cpu.inst      13316329                       # Total read bandwidth from this memory (bytes/s)
system.mem_ctrl.dram.bw_read::.cpu.data      71807836                       # Total read bandwidth from this memory (bytes/s)
system.mem_ctrl.dram.bw_read::total          85124165                       # Total read bandwidth from this memory (bytes/s)
system.mem_ctrl.dram.bw_inst_read::.cpu.inst     13316329                       # Instruction read bandwidth from this memory (bytes/s)
system.mem_ctrl.dram.bw_inst_read::total     13316329                       # Instruction read bandwidth from this memory (bytes/s)
system.mem_ctrl.dram.bw_write::.writebacks      6194776                       # Write bandwidth from this memory (bytes/s)
system.mem_ctrl.dram.bw_write::total          6194776                       # Write bandwidth from this memory (bytes/s)
system.mem_ctrl.dram.bw_total::.writebacks      6194776                       # Total bandwidth to/from this memory (bytes/s)
system.mem_ctrl.dram.bw_total::.cpu.inst     13316329                       # Total bandwidth to/from this memory (bytes/s)
system.mem_ctrl.dram.bw_total::.cpu.data     71807836                       # Total bandwidth to/from this memory (bytes/s)
system.mem_ctrl.dram.bw_total::total         91318941                       # Total bandwidth to/from this memory (bytes/s)
system.mem_ctrl.dram.readBursts                 12203                       # Number of DRAM read bursts
system.mem_ctrl.dram.writeBursts                  872                       # Number of DRAM write bursts
system.mem_ctrl.dram.perBankRdBursts::0           950                       # Per bank write bursts
system.mem_ctrl.dram.perBankRdBursts::1           594                       # Per bank write bursts
system.mem_ctrl.dram.perBankRdBursts::2           711                       # Per bank write bursts
system.mem_ctrl.dram.perBankRdBursts::3           704                       # Per bank write bursts
system.mem_ctrl.dram.perBankRdBursts::4           853                       # Per bank write bursts
system.mem_ctrl.dram.perBankRdBursts::5           930                       # Per bank write bursts
system.mem_ctrl.dram.perBankRdBursts::6           862                       # Per bank write bursts
system.mem_ctrl.dram.perBankRdBursts::7           886                       # Per bank write bursts
system.mem_ctrl.dram.perBankRdBursts::8           656                       # Per bank write bursts
system.mem_ctrl.dram.perBankRdBursts::9           835                       # Per bank write bursts
system.mem_ctrl.dram.perBankRdBursts::10          757                       # Per bank write bursts
system.mem_ctrl.dram.perBankRdBursts::11          808                       # Per bank write bursts
system.mem_ctrl.dram.perBankRdBursts::12          661                       # Per bank write bursts
system.mem_ctrl.dram.perBankRdBursts::13          637                       # Per bank write bursts
system.mem_ctrl.dram.perBankRdBursts::14          646                       # Per bank write bursts
system.mem_ctrl.dram.perBankRdBursts::15          713                       # Per bank write bursts
system.mem_ctrl.dram.perBankWrBursts::0           135                       # Per bank write bursts
system.mem_ctrl.dram.perBankWrBursts::1            24                       # Per bank write bursts
system.mem_ctrl.dram.perBankWrBursts::2            33                       # Per bank write bursts
system.mem_ctrl.dram.perBankWrBursts::3            67                       # Per bank write bursts
system.mem_ctrl.dram.perBankWrBursts::4            51                       # Per bank write bursts
system.mem_ctrl.dram.perBankWrBursts::5            57                       # Per bank write bursts
system.mem_ctrl.dram.perBankWrBursts::6            23                       # Per bank write bursts
system.mem_ctrl.dram.perBankWrBursts::7            52                       # Per bank write bursts
system.mem_ctrl.dram.perBankWrBursts::8            51                       # Per bank write bursts
system.mem_ctrl.dram.perBankWrBursts::9            84                       # Per bank write bursts
system.mem_ctrl.dram.perBankWrBursts::10          107                       # Per bank write bursts
system.mem_ctrl.dram.perBankWrBursts::11           88                       # Per bank write bursts
system.mem_ctrl.dram.perBankWrBursts::12           69                       # Per bank write bursts
system.mem_ctrl.dram.perBankWrBursts::13            0                       # Per bank write bursts
system.mem_ctrl.dram.perBankWrBursts::14            0                       # Per bank write bursts
system.mem_ctrl.dram.perBankWrBursts::15           31                       # Per bank write bursts
system.mem_ctrl.dram.totQLat                144509750                       # Total ticks spent queuing
system.mem_ctrl.dram.totBusLat               61015000                       # Total ticks spent in databus transfers
system.mem_ctrl.dram.totMemAccLat           373316000                       # Total ticks spent from burst creation until serviced by the DRAM
system.mem_ctrl.dram.avgQLat                 11842.15                       # Average queueing delay per DRAM burst
system.mem_ctrl.dram.avgBusLat                5000.00                       # Average bus latency per DRAM burst
system.mem_ctrl.dram.avgMemAccLat            30592.15                       # Average memory access latency per DRAM burst
system.mem_ctrl.dram.readRowHits                 6423                       # Number of row buffer hits during reads
system.mem_ctrl.dram.writeRowHits                 626                       # Number of row buffer hits during writes
system.mem_ctrl.dram.readRowHitRate             52.63                       # Row buffer hit rate for reads
system.mem_ctrl.dram.writeRowHitRate            71.79                       # Row buffer hit rate for writes
system.mem_ctrl.dram.bytesPerActivate::samples         6019                       # Bytes accessed per row activation
system.mem_ctrl.dram.bytesPerActivate::mean   138.856288                       # Bytes accessed per row activation
system.mem_ctrl.dram.bytesPerActivate::gmean    97.281090                       # Bytes accessed per row activation
system.mem_ctrl.dram.bytesPerActivate::stdev   180.672728                       # Bytes accessed per row activation
system.mem_ctrl.dram.bytesPerActivate::0-127         3927     65.24%     65.24% # Bytes accessed per row activation
system.mem_ctrl.dram.bytesPerActivate::128-255         1375     22.84%     88.09% # Bytes accessed per row activation
system.mem_ctrl.dram.bytesPerActivate::256-383          267      4.44%     92.52% # Bytes accessed per row activation
system.mem_ctrl.dram.bytesPerActivate::384-511          131      2.18%     94.70% # Bytes accessed per row activation
system.mem_ctrl.dram.bytesPerActivate::512-639           81      1.35%     96.05% # Bytes accessed per row activation
system.mem_ctrl.dram.bytesPerActivate::640-767           51      0.85%     96.89% # Bytes accessed per row activation
system.mem_ctrl.dram.bytesPerActivate::768-895           29      0.48%     97.37% # Bytes accessed per row activation
system.mem_ctrl.dram.bytesPerActivate::896-1023           32      0.53%     97.91% # Bytes accessed per row activation
system.mem_ctrl.dram.bytesPerActivate::1024-1151          126      2.09%    100.00% # Bytes accessed per row activation
system.mem_ctrl.dram.bytesPerActivate::total         6019                       # Bytes accessed per row activation
system.mem_ctrl.dram.bytesRead                 780992                       # Total number of bytes read from DRAM
system.mem_ctrl.dram.bytesWritten               55808                       # Total number of bytes written to DRAM
system.mem_ctrl.dram.avgRdBW                85.033578                       # Average DRAM read bandwidth in MiBytes/s
system.mem_ctrl.dram.avgWrBW                 6.076316                       # Average DRAM write bandwidth in MiBytes/s
system.mem_ctrl.dram.peakBW                  12800.00                       # Theoretical peak bandwidth in MiByte/s
system.mem_ctrl.dram.busUtil                     0.71                       # Data bus utilization in percentage
system.mem_ctrl.dram.busUtilRead                 0.66                       # Data bus utilization in percentage for reads
system.mem_ctrl.dram.busUtilWrite                0.05                       # Data bus utilization in percentage for writes
system.mem_ctrl.dram.pageHitRate                53.91                       # Row buffer hit rate, read and write combined
system.mem_ctrl.dram.power_state.pwrStateResidencyTicks::UNDEFINED   9184513000                       # Cumulative time (in ticks) in various power states
system.mem_ctrl.dram.rank0.actEnergy         22369620                       # Energy for activate commands per rank (pJ)
system.mem_ctrl.dram.rank0.preEnergy         11874555                       # Energy for precharge commands per rank (pJ)
system.mem_ctrl.dram.rank0.readEnergy        46338600                       # Energy for read commands per rank (pJ)
system.mem_ctrl.dram.rank0.writeEnergy        2307240                       # Energy for write commands per rank (pJ)
system.mem_ctrl.dram.rank0.refreshEnergy 724660560.000000                       # Energy for refresh commands per rank (pJ)
system.mem_ctrl.dram.rank0.actBackEnergy   2912902350                       # Energy for active background per rank (pJ)
system.mem_ctrl.dram.rank0.preBackEnergy   1073882880                       # Energy for precharge background per rank (pJ)
system.mem_ctrl.dram.rank0.actPowerDownEnergy            0                       # Energy for active power-down per rank (pJ)
system.mem_ctrl.dram.rank0.prePowerDownEnergy            0                       # Energy for precharge power-down per rank (pJ)
system.mem_ctrl.dram.rank0.selfRefreshEnergy            0                       # Energy for self refresh per rank (pJ)
system.mem_ctrl.dram.rank0.totalEnergy     4794335805                       # Total energy per rank (pJ)
system.mem_ctrl.dram.rank0.averagePower    522.002180                       # Core power per rank (mW)
system.mem_ctrl.dram.rank0.totalIdleTime            0                       # Total Idle time Per DRAM Rank
system.mem_ctrl.dram.rank0.pwrStateTime::IDLE   2763349500                       # Time in different power states
system.mem_ctrl.dram.rank0.pwrStateTime::REF    306540000                       # Time in different power states
system.mem_ctrl.dram.rank0.pwrStateTime::SREF            0                       # Time in different power states
system.mem_ctrl.dram.rank0.pwrStateTime::PRE_PDN            0                       # Time in different power states
system.mem_ctrl.dram.rank0.pwrStateTime::ACT   6114623500                       # Time in different power states
system.mem_ctrl.dram.rank0.pwrStateTime::ACT_PDN            0                       # Time in different power states
system.mem_ctrl.dram.rank1.actEnergy         20656020                       # Energy for activate commands per rank (pJ)
system.mem_ctrl.dram.rank1.preEnergy         10967550                       # Energy for precharge commands per rank (pJ)
system.mem_ctrl.dram.rank1.readEnergy        40790820                       # Energy for read commands per rank (pJ)
system.mem_ctrl.dram.rank1.writeEnergy        2244600                       # Energy for write commands per rank (pJ)
system.mem_ctrl.dram.rank1.refreshEnergy 724660560.000000                       # Energy for refresh commands per rank (pJ)
system.mem_ctrl.dram.rank1.actBackEnergy   2808807240                       # Energy for active background per rank (pJ)
system.mem_ctrl.dram.rank1.preBackEnergy   1161541920                       # Energy for precharge background per rank (pJ)
system.mem_ctrl.dram.rank1.actPowerDownEnergy            0                       # Energy for active power-down per rank (pJ)
system.mem_ctrl.dram.rank1.prePowerDownEnergy            0                       # Energy for precharge power-down per rank (pJ)
system.mem_ctrl.dram.rank1.selfRefreshEnergy            0                       # Energy for self refresh per rank (pJ)
system.mem_ctrl.dram.rank1.totalEnergy     4769668710                       # Total energy per rank (pJ)
system.mem_ctrl.dram.rank1.averagePower    519.316453                       # Core power per rank (mW)
system.mem_ctrl.dram.rank1.totalIdleTime            0                       # Total Idle time Per DRAM Rank
system.mem_ctrl.dram.rank1.pwrStateTime::IDLE   2992969750                       # Time in different power states
system.mem_ctrl.dram.rank1.pwrStateTime::REF    306540000                       # Time in different power states
system.mem_ctrl.dram.rank1.pwrStateTime::SREF            0                       # Time in different power states
system.mem_ctrl.dram.rank1.pwrStateTime::PRE_PDN            0                       # Time in different power states
system.mem_ctrl.dram.rank1.pwrStateTime::ACT   5885003250                       # Time in different power states
system.mem_ctrl.dram.rank1.pwrStateTime::ACT_PDN            0                       # Time in different power states
system.mem_ctrl.power_state.pwrStateResidencyTicks::UNDEFINED   9184513000                       # Cumulative time (in ticks) in various power states
system.membus.trans_dist::ReadResp              10513                       # Transaction distribution
system.membus.trans_dist::WritebackDirty          889                       # Transaction distribution
system.membus.trans_dist::CleanEvict             3138                       # Transaction distribution
system.membus.trans_dist::ReadExReq              1703                       # Transaction distribution
system.membus.trans_dist::ReadExResp             1703                       # Transaction distribution
system.membus.trans_dist::ReadSharedReq         10513                       # Transaction distribution
system.membus.pkt_count_system.l2cache.mem_side_port::system.mem_ctrl.port        28459                       # Packet count per connected requestor and responder (bytes)
system.membus.pkt_count_system.l2cache.mem_side_port::total        28459                       # Packet count per connected requestor and responder (bytes)
system.membus.pkt_count::total                  28459                       # Packet count per connected requestor and responder (bytes)
system.membus.pkt_size_system.l2cache.mem_side_port::system.mem_ctrl.port       838720                       # Cumulative packet size per connected requestor and responder (bytes)
system.membus.pkt_size_system.l2cache.mem_side_port::total       838720                       # Cumulative packet size per connected requestor and responder (bytes)
system.membus.pkt_size::total                  838720                       # Cumulative packet size per connected requestor and responder (bytes)
system.membus.snoops                                0                       # Total snoops (count)
system.membus.snoopTraffic                          0                       # Total snoop traffic (bytes)
system.membus.snoop_fanout::samples             12216                       # Request fanout histogram
system.membus.snoop_fanout::mean                    0                       # Request fanout histogram
system.membus.snoop_fanout::stdev                   0                       # Request fanout histogram
system.membus.snoop_fanout::underflows              0      0.00%      0.00% # Request fanout histogram
system.membus.snoop_fanout::0                   12216    100.00%    100.00% # Request fanout histogram
system.membus.snoop_fanout::1                       0      0.00%    100.00% # Request fanout histogram
system.membus.snoop_fanout::overflows               0      0.00%    100.00% # Request fanout histogram
system.membus.snoop_fanout::min_value               0                       # Request fanout histogram
system.membus.snoop_fanout::max_value               0                       # Request fanout histogram
system.membus.snoop_fanout::total               12216                       # Request fanout histogram
system.membus.power_state.pwrStateResidencyTicks::UNDEFINED   9184513000                       # Cumulative time (in ticks) in various power states
system.membus.reqLayer2.occupancy            19799000                       # Layer occupancy (ticks)
system.membus.reqLayer2.utilization               0.2                       # Layer utilization (%)
system.membus.respLayer0.occupancy           65752000                       # Layer occupancy (ticks)
system.membus.respLayer0.utilization              0.7                       # Layer utilization (%)

---------- End Simulation Statistics   ----------
