
---------- Begin Simulation Statistics ----------
final_tick                               2376093630000                       # Number of ticks from beginning of simulation (restored from checkpoints and never reset)
host_inst_rate                                 448998                       # Simulator instruction rate (inst/s)
host_mem_usage                                 674444                       # Number of bytes of host memory used
host_op_rate                                   657828                       # Simulator op (including micro ops) rate (op/s)
host_seconds                                  1171.89                       # Real time elapsed on the host
host_tick_rate                             2027569859                       # Simulator tick rate (ticks/s)
sim_freq                                 1000000000000                       # Frequency of simulated ticks
sim_insts                                   526177559                       # Number of instructions simulated
sim_ops                                     770903519                       # Number of ops (including micro ops) simulated
sim_seconds                                  2.376094                       # Number of seconds simulated
sim_ticks                                2376093630000                       # Number of ticks simulated
system.cpu.Branches                           3021886                       # Number of branches fetched
system.cpu.committedInsts                   526177559                       # Number of instructions committed
system.cpu.committedOps                     770903519                       # Number of ops (including micro ops) committed
system.cpu.idle_fraction                     0.000000                       # Percentage of idle cycles
system.cpu.not_idle_fraction                 1.000000                       # Percentage of non-idle cycles
system.cpu.numCycles                       2376093630                       # number of cpu cycles simulated
system.cpu.numWorkItemsCompleted                    0                       # number of work items this cpu completed
system.cpu.numWorkItemsStarted                      0                       # number of work items this cpu started
system.cpu.num_busy_cycles               2376093629.999000                       # Number of busy cycles
system.cpu.num_cc_register_reads              8346340                       # number of times the CC registers were read
system.cpu.num_cc_register_writes            12896253                       # number of times the CC registers were written
system.cpu.num_conditional_control_insts      1622632                       # number of instructions that are conditional controls
system.cpu.num_fp_alu_accesses              724171277                       # Number of float alu accesses
system.cpu.num_fp_insts                     724171277                       # number of float instructions
system.cpu.num_fp_register_reads           1031628202                       # number of times the floating registers were read
system.cpu.num_fp_register_writes           638978695                       # number of times the floating registers were written
system.cpu.num_func_calls                     1356000                       # number of times a function call or return occured
system.cpu.num_idle_cycles                   0.001000                       # Number of idle cycles
system.cpu.num_int_alu_accesses             281643692                       # Number of integer alu accesses
system.cpu.num_int_insts                    281643692                       # number of integer instructions
system.cpu.num_int_register_reads           783869742                       # number of times the integer registers were read
system.cpu.num_int_register_writes           35235382                       # number of times the integer registers were written
system.cpu.num_load_insts                   151055028                       # Number of load instructions
system.cpu.num_mem_refs                     244655432                       # number of memory refs
system.cpu.num_store_insts                   93600404                       # Number of store instructions
system.cpu.num_vec_alu_accesses                     0                       # Number of vector alu accesses
system.cpu.num_vec_insts                            0                       # number of vector instructions
system.cpu.num_vec_register_reads                   0                       # number of times the vector registers were read
system.cpu.num_vec_register_writes                  0                       # number of times the vector registers were written
system.cpu.op_class::No_OpClass                122350      0.02%      0.02% # Class of executed instruction
system.cpu.op_class::IntAlu                 156847686     20.35%     20.36% # Class of executed instruction
system.cpu.op_class::IntMult                    38307      0.00%     20.37% # Class of executed instruction
system.cpu.op_class::IntDiv                       588      0.00%     20.37% # Class of executed instruction
system.cpu.op_class::FloatAdd               129162355     16.75%     37.12% # Class of executed instruction
system.cpu.op_class::FloatCmp                       0      0.00%     37.12% # Class of executed instruction
system.cpu.op_class::FloatCvt                       0      0.00%     37.12% # Class of executed instruction
system.cpu.op_class::FloatMult                      0      0.00%     37.12% # Class of executed instruction
system.cpu.op_class::FloatMultAcc                   0      0.00%     37.12% # Class of executed instruction
system.cpu.op_class::FloatDiv                       0      0.00%     37.12% # Class of executed instruction
system.cpu.op_class::FloatMisc                      0      0.00%     37.12% # Class of executed instruction
system.cpu.op_class::FloatSqrt                      0      0.00%     37.12% # Class of executed instruction
system.cpu.op_class::SimdAdd                      104      0.00%     37.12% # Class of executed instruction
system.cpu.op_class::SimdAddAcc                     0      0.00%     37.12% # Class of executed instruction
system.cpu.op_class::SimdAlu                 13572619      1.76%     38.88% # Class of executed instruction
system.cpu.op_class::SimdCmp                       18      0.00%     38.88% # Class of executed instruction
system.cpu.op_class::SimdCvt                     1518      0.00%     38.88% # Class of executed instruction
system.cpu.op_class::SimdMisc                   18290      0.00%     38.88% # Class of executed instruction
system.cpu.op_class::SimdMult                       0      0.00%     38.88% # Class of executed instruction
system.cpu.op_class::SimdMultAcc                    0      0.00%     38.88% # Class of executed instruction
system.cpu.op_class::SimdShift                    156      0.00%     38.88% # Class of executed instruction
system.cpu.op_class::SimdShiftAcc                   0      0.00%     38.88% # Class of executed instruction
system.cpu.op_class::SimdDiv                        0      0.00%     38.88% # Class of executed instruction
system.cpu.op_class::SimdSqrt                       0      0.00%     38.88% # Class of executed instruction
system.cpu.op_class::SimdFloatAdd           100487583     13.04%     51.92% # Class of executed instruction
system.cpu.op_class::SimdFloatAlu                   0      0.00%     51.92% # Class of executed instruction
system.cpu.op_class::SimdFloatCmp                   0      0.00%     51.92% # Class of executed instruction
system.cpu.op_class::SimdFloatCvt               11622      0.00%     51.92% # Class of executed instruction
system.cpu.op_class::SimdFloatDiv             1355195      0.18%     52.10% # Class of executed instruction
system.cpu.op_class::SimdFloatMisc                  0      0.00%     52.10% # Class of executed instruction
system.cpu.op_class::SimdFloatMult          124629795     16.17%     68.26% # Class of executed instruction
system.cpu.op_class::SimdFloatMultAcc               0      0.00%     68.26% # Class of executed instruction
system.cpu.op_class::SimdFloatSqrt                 10      0.00%     68.26% # Class of executed instruction
system.cpu.op_class::SimdReduceAdd                  0      0.00%     68.26% # Class of executed instruction
system.cpu.op_class::SimdReduceAlu                  0      0.00%     68.26% # Class of executed instruction
system.cpu.op_class::SimdReduceCmp                  0      0.00%     68.26% # Class of executed instruction
system.cpu.op_class::SimdFloatReduceAdd             0      0.00%     68.26% # Class of executed instruction
system.cpu.op_class::SimdFloatReduceCmp             0      0.00%     68.26% # Class of executed instruction
system.cpu.op_class::SimdAes                        0      0.00%     68.26% # Class of executed instruction
system.cpu.op_class::SimdAesMix                     0      0.00%     68.26% # Class of executed instruction
system.cpu.op_class::SimdSha1Hash                   0      0.00%     68.26% # Class of executed instruction
system.cpu.op_class::SimdSha1Hash2                  0      0.00%     68.26% # Class of executed instruction
system.cpu.op_class::SimdSha256Hash                 0      0.00%     68.26% # Class of executed instruction
system.cpu.op_class::SimdSha256Hash2                0      0.00%     68.26% # Class of executed instruction
system.cpu.op_class::SimdShaSigma2                  0      0.00%     68.26% # Class of executed instruction
system.cpu.op_class::SimdShaSigma3                  0      0.00%     68.26% # Class of executed instruction
system.cpu.op_class::SimdPredAlu                    0      0.00%     68.26% # Class of executed instruction
system.cpu.op_class::MemRead                  1225881      0.16%     68.42% # Class of executed instruction
system.cpu.op_class::MemWrite                 8411185      1.09%     69.51% # Class of executed instruction
system.cpu.op_class::FloatMemRead           149829147     19.44%     88.95% # Class of executed instruction
system.cpu.op_class::FloatMemWrite           85189219     11.05%    100.00% # Class of executed instruction
system.cpu.op_class::IprAccess                      0      0.00%    100.00% # Class of executed instruction
system.cpu.op_class::InstPrefetch                   0      0.00%    100.00% # Class of executed instruction
system.cpu.op_class::total                  770903628                       # Class of executed instruction
system.cpu.workload.numSyscalls                    85                       # Number of system calls
system.l2bus.snoop_filter.hit_multi_requests            0                       # Number of requests hitting in the snoop filter with multiple (>1) holders of the requested data.
system.l2bus.snoop_filter.hit_multi_snoops            0                       # Number of snoops hitting in the snoop filter with multiple (>1) holders of the requested data.
system.l2bus.snoop_filter.hit_single_requests      4513448                       # Number of requests hitting in the snoop filter with a single holder of the requested data.
system.l2bus.snoop_filter.hit_single_snoops       433877                       # Number of snoops hitting in the snoop filter with a single holder of the requested data.
system.l2bus.snoop_filter.tot_requests        9028176                       # Total number of requests made to the snoop filter.
system.l2bus.snoop_filter.tot_snoops           433877                       # Total number of snoops made to the snoop filter.
system.membus.snoop_filter.hit_multi_requests            0                       # Number of requests hitting in the snoop filter with multiple (>1) holders of the requested data.
system.membus.snoop_filter.hit_multi_snoops            0                       # Number of snoops hitting in the snoop filter with multiple (>1) holders of the requested data.
system.membus.snoop_filter.hit_single_requests      1103394                       # Number of requests hitting in the snoop filter with a single holder of the requested data.
system.membus.snoop_filter.hit_single_snoops            0                       # Number of snoops hitting in the snoop filter with a single holder of the requested data.
system.membus.snoop_filter.tot_requests       2209219                       # Total number of requests made to the snoop filter.
system.membus.snoop_filter.tot_snoops               0                       # Total number of snoops made to the snoop filter.
system.clk_domain.clock                          1000                       # Clock period in ticks
system.clk_domain.voltage_domain.voltage            1                       # Voltage in Volts
system.cpu.dcache.demand_hits::.cpu.data    243143458                       # number of demand (read+write) hits
system.cpu.dcache.demand_hits::total        243143458                       # number of demand (read+write) hits
system.cpu.dcache.overall_hits::.cpu.data    243143458                       # number of overall hits
system.cpu.dcache.overall_hits::total       243143458                       # number of overall hits
system.cpu.dcache.demand_misses::.cpu.data      1512015                       # number of demand (read+write) misses
system.cpu.dcache.demand_misses::total        1512015                       # number of demand (read+write) misses
system.cpu.dcache.overall_misses::.cpu.data      1512015                       # number of overall misses
system.cpu.dcache.overall_misses::total       1512015                       # number of overall misses
system.cpu.dcache.demand_miss_latency::.cpu.data 123515231000                       # number of demand (read+write) miss cycles
system.cpu.dcache.demand_miss_latency::total 123515231000                       # number of demand (read+write) miss cycles
system.cpu.dcache.overall_miss_latency::.cpu.data 123515231000                       # number of overall miss cycles
system.cpu.dcache.overall_miss_latency::total 123515231000                       # number of overall miss cycles
system.cpu.dcache.demand_accesses::.cpu.data    244655473                       # number of demand (read+write) accesses
system.cpu.dcache.demand_accesses::total    244655473                       # number of demand (read+write) accesses
system.cpu.dcache.overall_accesses::.cpu.data    244655473                       # number of overall (read+write) accesses
system.cpu.dcache.overall_accesses::total    244655473                       # number of overall (read+write) accesses
system.cpu.dcache.demand_miss_rate::.cpu.data     0.006180                       # miss rate for demand accesses
system.cpu.dcache.demand_miss_rate::total     0.006180                       # miss rate for demand accesses
system.cpu.dcache.overall_miss_rate::.cpu.data     0.006180                       # miss rate for overall accesses
system.cpu.dcache.overall_miss_rate::total     0.006180                       # miss rate for overall accesses
system.cpu.dcache.demand_avg_miss_latency::.cpu.data 81689.157184                       # average overall miss latency
system.cpu.dcache.demand_avg_miss_latency::total 81689.157184                       # average overall miss latency
system.cpu.dcache.overall_avg_miss_latency::.cpu.data 81689.157184                       # average overall miss latency
system.cpu.dcache.overall_avg_miss_latency::total 81689.157184                       # average overall miss latency
system.cpu.dcache.blocked_cycles::no_mshrs            0                       # number of cycles access was blocked
system.cpu.dcache.blocked_cycles::no_targets            0                       # number of cycles access was blocked
system.cpu.dcache.blocked::no_mshrs                 0                       # number of cycles access was blocked
system.cpu.dcache.blocked::no_targets               0                       # number of cycles access was blocked
system.cpu.dcache.avg_blocked_cycles::no_mshrs          nan                       # average number of cycles each access was blocked
system.cpu.dcache.avg_blocked_cycles::no_targets          nan                       # average number of cycles each access was blocked
system.cpu.dcache.writebacks::.writebacks       633206                       # number of writebacks
system.cpu.dcache.writebacks::total            633206                       # number of writebacks
system.cpu.dcache.demand_mshr_misses::.cpu.data      1512015                       # number of demand (read+write) MSHR misses
system.cpu.dcache.demand_mshr_misses::total      1512015                       # number of demand (read+write) MSHR misses
system.cpu.dcache.overall_mshr_misses::.cpu.data      1512015                       # number of overall MSHR misses
system.cpu.dcache.overall_mshr_misses::total      1512015                       # number of overall MSHR misses
system.cpu.dcache.demand_mshr_miss_latency::.cpu.data 120491201000                       # number of demand (read+write) MSHR miss cycles
system.cpu.dcache.demand_mshr_miss_latency::total 120491201000                       # number of demand (read+write) MSHR miss cycles
system.cpu.dcache.overall_mshr_miss_latency::.cpu.data 120491201000                       # number of overall MSHR miss cycles
system.cpu.dcache.overall_mshr_miss_latency::total 120491201000                       # number of overall MSHR miss cycles
system.cpu.dcache.demand_mshr_miss_rate::.cpu.data     0.006180                       # mshr miss rate for demand accesses
system.cpu.dcache.demand_mshr_miss_rate::total     0.006180                       # mshr miss rate for demand accesses
system.cpu.dcache.overall_mshr_miss_rate::.cpu.data     0.006180                       # mshr miss rate for overall accesses
system.cpu.dcache.overall_mshr_miss_rate::total     0.006180                       # mshr miss rate for overall accesses
system.cpu.dcache.demand_avg_mshr_miss_latency::.cpu.data 79689.157184                       # average overall mshr miss latency
system.cpu.dcache.demand_avg_mshr_miss_latency::total 79689.157184                       # average overall mshr miss latency
system.cpu.dcache.overall_avg_mshr_miss_latency::.cpu.data 79689.157184                       # average overall mshr miss latency
system.cpu.dcache.overall_avg_mshr_miss_latency::total 79689.157184                       # average overall mshr miss latency
system.cpu.dcache.replacements                1510991                       # number of replacements
system.cpu.dcache.ReadReq_hits::.cpu.data    149746969                       # number of ReadReq hits
system.cpu.dcache.ReadReq_hits::total       149746969                       # number of ReadReq hits
system.cpu.dcache.ReadReq_misses::.cpu.data      1308087                       # number of ReadReq misses
system.cpu.dcache.ReadReq_misses::total       1308087                       # number of ReadReq misses
system.cpu.dcache.ReadReq_miss_latency::.cpu.data 104052345000                       # number of ReadReq miss cycles
system.cpu.dcache.ReadReq_miss_latency::total 104052345000                       # number of ReadReq miss cycles
system.cpu.dcache.ReadReq_accesses::.cpu.data    151055056                       # number of ReadReq accesses(hits+misses)
system.cpu.dcache.ReadReq_accesses::total    151055056                       # number of ReadReq accesses(hits+misses)
system.cpu.dcache.ReadReq_miss_rate::.cpu.data     0.008660                       # miss rate for ReadReq accesses
system.cpu.dcache.ReadReq_miss_rate::total     0.008660                       # miss rate for ReadReq accesses
system.cpu.dcache.ReadReq_avg_miss_latency::.cpu.data 79545.431611                       # average ReadReq miss latency
system.cpu.dcache.ReadReq_avg_miss_latency::total 79545.431611                       # average ReadReq miss latency
system.cpu.dcache.ReadReq_mshr_misses::.cpu.data      1308087                       # number of ReadReq MSHR misses
system.cpu.dcache.ReadReq_mshr_misses::total      1308087                       # number of ReadReq MSHR misses
system.cpu.dcache.ReadReq_mshr_miss_latency::.cpu.data 101436171000                       # number of ReadReq MSHR miss cycles
system.cpu.dcache.ReadReq_mshr_miss_latency::total 101436171000                       # number of ReadReq MSHR miss cycles
system.cpu.dcache.ReadReq_mshr_miss_rate::.cpu.data     0.008660                       # mshr miss rate for ReadReq accesses
system.cpu.dcache.ReadReq_mshr_miss_rate::total     0.008660                       # mshr miss rate for ReadReq accesses
system.cpu.dcache.ReadReq_avg_mshr_miss_latency::.cpu.data 77545.431611                       # average ReadReq mshr miss latency
system.cpu.dcache.ReadReq_avg_mshr_miss_latency::total 77545.431611                       # average ReadReq mshr miss latency
system.cpu.dcache.WriteReq_hits::.cpu.data     93396489                       # number of WriteReq hits
system.cpu.dcache.WriteReq_hits::total       93396489                       # number of WriteReq hits
system.cpu.dcache.WriteReq_misses::.cpu.data       203928                       # number of WriteReq misses
system.cpu.dcache.WriteReq_misses::total       203928                       # number of WriteReq misses
system.cpu.dcache.WriteReq_miss_latency::.cpu.data  19462886000                       # number of WriteReq miss cycles
system.cpu.dcache.WriteReq_miss_latency::total  19462886000                       # number of WriteReq miss cycles
system.cpu.dcache.WriteReq_accesses::.cpu.data     93600417                       # number of WriteReq accesses(hits+misses)
system.cpu.dcache.WriteReq_accesses::total     93600417                       # number of WriteReq accesses(hits+misses)
system.cpu.dcache.WriteReq_miss_rate::.cpu.data     0.002179                       # miss rate for WriteReq accesses
system.cpu.dcache.WriteReq_miss_rate::total     0.002179                       # miss rate for WriteReq accesses
system.cpu.dcache.WriteReq_avg_miss_latency::.cpu.data 95439.988623                       # average WriteReq miss latency
system.cpu.dcache.WriteReq_avg_miss_latency::total 95439.988623                       # average WriteReq miss latency
system.cpu.dcache.WriteReq_mshr_misses::.cpu.data       203928                       # number of WriteReq MSHR misses
system.cpu.dcache.WriteReq_mshr_misses::total       203928                       # number of WriteReq MSHR misses
system.cpu.dcache.WriteReq_mshr_miss_latency::.cpu.data  19055030000                       # number of WriteReq MSHR miss cycles
system.cpu.dcache.WriteReq_mshr_miss_latency::total  19055030000                       # number of WriteReq MSHR miss cycles
system.cpu.dcache.WriteReq_mshr_miss_rate::.cpu.data     0.002179                       # mshr miss rate for WriteReq accesses
system.cpu.dcache.WriteReq_mshr_miss_rate::total     0.002179                       # mshr miss rate for WriteReq accesses
system.cpu.dcache.WriteReq_avg_mshr_miss_latency::.cpu.data 93439.988623                       # average WriteReq mshr miss latency
system.cpu.dcache.WriteReq_avg_mshr_miss_latency::total 93439.988623                       # average WriteReq mshr miss latency
system.cpu.dcache.power_state.pwrStateResidencyTicks::UNDEFINED 2376093630000                       # Cumulative time (in ticks) in various power states
system.cpu.dcache.tags.tagsinuse          1023.849408                       # Cycle average of tags in use
system.cpu.dcache.tags.total_refs           244655473                       # Total number of references to valid blocks.
system.cpu.dcache.tags.sampled_refs           1512015                       # Sample count of references to valid blocks.
system.cpu.dcache.tags.avg_refs            161.807570                       # Average number of references to valid blocks.
system.cpu.dcache.tags.warmup_cycle            224000                       # Cycle when the warmup percentage was hit.
system.cpu.dcache.tags.occ_blocks::.cpu.data  1023.849408                       # Average occupied blocks per requestor
system.cpu.dcache.tags.occ_percent::.cpu.data     0.999853                       # Average percentage of cache occupancy
system.cpu.dcache.tags.occ_percent::total     0.999853                       # Average percentage of cache occupancy
system.cpu.dcache.tags.occ_task_id_blocks::1024         1024                       # Occupied blocks per task id
system.cpu.dcache.tags.age_task_id_blocks_1024::0           27                       # Occupied blocks per task id
system.cpu.dcache.tags.age_task_id_blocks_1024::1           84                       # Occupied blocks per task id
system.cpu.dcache.tags.age_task_id_blocks_1024::2          498                       # Occupied blocks per task id
system.cpu.dcache.tags.age_task_id_blocks_1024::3          415                       # Occupied blocks per task id
system.cpu.dcache.tags.occ_task_id_percent::1024            1                       # Percentage of cache occupancy per task id
system.cpu.dcache.tags.tag_accesses         490822961                       # Number of tag accesses
system.cpu.dcache.tags.data_accesses        490822961                       # Number of data accesses
system.cpu.dcache.tags.power_state.pwrStateResidencyTicks::UNDEFINED 2376093630000                       # Cumulative time (in ticks) in various power states
system.cpu.dtb.rdAccesses                   151055057                       # TLB accesses on read requests
system.cpu.dtb.wrAccesses                    93600440                       # TLB accesses on write requests
system.cpu.dtb.rdMisses                          4202                       # TLB misses on read requests
system.cpu.dtb.wrMisses                          2551                       # TLB misses on write requests
system.cpu.dtb.walker.power_state.pwrStateResidencyTicks::UNDEFINED 2376093630000                       # Cumulative time (in ticks) in various power states
system.cpu.icache.demand_hits::.cpu.inst    841887664                       # number of demand (read+write) hits
system.cpu.icache.demand_hits::total        841887664                       # number of demand (read+write) hits
system.cpu.icache.overall_hits::.cpu.inst    841887664                       # number of overall hits
system.cpu.icache.overall_hits::total       841887664                       # number of overall hits
system.cpu.icache.demand_misses::.cpu.inst      3002713                       # number of demand (read+write) misses
system.cpu.icache.demand_misses::total        3002713                       # number of demand (read+write) misses
system.cpu.icache.overall_misses::.cpu.inst      3002713                       # number of overall misses
system.cpu.icache.overall_misses::total       3002713                       # number of overall misses
system.cpu.icache.demand_miss_latency::.cpu.inst  82516223000                       # number of demand (read+write) miss cycles
system.cpu.icache.demand_miss_latency::total  82516223000                       # number of demand (read+write) miss cycles
system.cpu.icache.overall_miss_latency::.cpu.inst  82516223000                       # number of overall miss cycles
system.cpu.icache.overall_miss_latency::total  82516223000                       # number of overall miss cycles
system.cpu.icache.demand_accesses::.cpu.inst    844890377                       # number of demand (read+write) accesses
system.cpu.icache.demand_accesses::total    844890377                       # number of demand (read+write) accesses
system.cpu.icache.overall_accesses::.cpu.inst    844890377                       # number of overall (read+write) accesses
system.cpu.icache.overall_accesses::total    844890377                       # number of overall (read+write) accesses
system.cpu.icache.demand_miss_rate::.cpu.inst     0.003554                       # miss rate for demand accesses
system.cpu.icache.demand_miss_rate::total     0.003554                       # miss rate for demand accesses
system.cpu.icache.overall_miss_rate::.cpu.inst     0.003554                       # miss rate for overall accesses
system.cpu.icache.overall_miss_rate::total     0.003554                       # miss rate for overall accesses
system.cpu.icache.demand_avg_miss_latency::.cpu.inst 27480.556084                       # average overall miss latency
system.cpu.icache.demand_avg_miss_latency::total 27480.556084                       # average overall miss latency
system.cpu.icache.overall_avg_miss_latency::.cpu.inst 27480.556084                       # average overall miss latency
system.cpu.icache.overall_avg_miss_latency::total 27480.556084                       # average overall miss latency
system.cpu.icache.blocked_cycles::no_mshrs            0                       # number of cycles access was blocked
system.cpu.icache.blocked_cycles::no_targets            0                       # number of cycles access was blocked
system.cpu.icache.blocked::no_mshrs                 0                       # number of cycles access was blocked
system.cpu.icache.blocked::no_targets               0                       # number of cycles access was blocked
system.cpu.icache.avg_blocked_cycles::no_mshrs          nan                       # average number of cycles each access was blocked
system.cpu.icache.avg_blocked_cycles::no_targets          nan                       # average number of cycles each access was blocked
system.cpu.icache.demand_mshr_misses::.cpu.inst      3002713                       # number of demand (read+write) MSHR misses
system.cpu.icache.demand_mshr_misses::total      3002713                       # number of demand (read+write) MSHR misses
system.cpu.icache.overall_mshr_misses::.cpu.inst      3002713                       # number of overall MSHR misses
system.cpu.icache.overall_mshr_misses::total      3002713                       # number of overall MSHR misses
system.cpu.icache.demand_mshr_miss_latency::.cpu.inst  76510797000                       # number of demand (read+write) MSHR miss cycles
system.cpu.icache.demand_mshr_miss_latency::total  76510797000                       # number of demand (read+write) MSHR miss cycles
system.cpu.icache.overall_mshr_miss_latency::.cpu.inst  76510797000                       # number of overall MSHR miss cycles
system.cpu.icache.overall_mshr_miss_latency::total  76510797000                       # number of overall MSHR miss cycles
system.cpu.icache.demand_mshr_miss_rate::.cpu.inst     0.003554                       # mshr miss rate for demand accesses
system.cpu.icache.demand_mshr_miss_rate::total     0.003554                       # mshr miss rate for demand accesses
system.cpu.icache.overall_mshr_miss_rate::.cpu.inst     0.003554                       # mshr miss rate for overall accesses
system.cpu.icache.overall_mshr_miss_rate::total     0.003554                       # mshr miss rate for overall accesses
system.cpu.icache.demand_avg_mshr_miss_latency::.cpu.inst 25480.556084                       # average overall mshr miss latency
system.cpu.icache.demand_avg_mshr_miss_latency::total 25480.556084                       # average overall mshr miss latency
system.cpu.icache.overall_avg_mshr_miss_latency::.cpu.inst 25480.556084                       # average overall mshr miss latency
system.cpu.icache.overall_avg_mshr_miss_latency::total 25480.556084                       # average overall mshr miss latency
system.cpu.icache.replacements                3002457                       # number of replacements
system.cpu.icache.ReadReq_hits::.cpu.inst    841887664                       # number of ReadReq hits
system.cpu.icache.ReadReq_hits::total       841887664                       # number of ReadReq hits
system.cpu.icache.ReadReq_misses::.cpu.inst      3002713                       # number of ReadReq misses
system.cpu.icache.ReadReq_misses::total       3002713                       # number of ReadReq misses
system.cpu.icache.ReadReq_miss_latency::.cpu.inst  82516223000                       # number of ReadReq miss cycles
system.cpu.icache.ReadReq_miss_latency::total  82516223000                       # number of ReadReq miss cycles
system.cpu.icache.ReadReq_accesses::.cpu.inst    844890377                       # number of ReadReq accesses(hits+misses)
system.cpu.icache.ReadReq_accesses::total    844890377                       # number of ReadReq accesses(hits+misses)
system.cpu.icache.ReadReq_miss_rate::.cpu.inst     0.003554                       # miss rate for ReadReq accesses
system.cpu.icache.ReadReq_miss_rate::total     0.003554                       # miss rate for ReadReq accesses
system.cpu.icache.ReadReq_avg_miss_latency::.cpu.inst 27480.556084                       # average ReadReq miss latency
system.cpu.icache.ReadReq_avg_miss_latency::total 27480.556084                       # average ReadReq miss latency
system.cpu.icache.ReadReq_mshr_misses::.cpu.inst      3002713                       # number of ReadReq MSHR misses
system.cpu.icache.ReadReq_mshr_misses::total      3002713                       # number of ReadReq MSHR misses
system.cpu.icache.ReadReq_mshr_miss_latency::.cpu.inst  76510797000                       # number of ReadReq MSHR miss cycles
system.cpu.icache.ReadReq_mshr_miss_latency::total  76510797000                       # number of ReadReq MSHR miss cycles
system.cpu.icache.ReadReq_mshr_miss_rate::.cpu.inst     0.003554                       # mshr miss rate for ReadReq accesses
system.cpu.icache.ReadReq_mshr_miss_rate::total     0.003554                       # mshr miss rate for ReadReq accesses
system.cpu.icache.ReadReq_avg_mshr_miss_latency::.cpu.inst 25480.556084                       # average ReadReq mshr miss latency
system.cpu.icache.ReadReq_avg_mshr_miss_latency::total 25480.556084                       # average ReadReq mshr miss latency
system.cpu.icache.power_state.pwrStateResidencyTicks::UNDEFINED 2376093630000                       # Cumulative time (in ticks) in various power states
system.cpu.icache.tags.tagsinuse           255.994562                       # Cycle average of tags in use
system.cpu.icache.tags.total_refs           844890377                       # Total number of references to valid blocks.
system.cpu.icache.tags.sampled_refs           3002713                       # Sample count of references to valid blocks.
system.cpu.icache.tags.avg_refs            281.375668                       # Average number of references to valid blocks.
system.cpu.icache.tags.warmup_cycle            107000                       # Cycle when the warmup percentage was hit.
system.cpu.icache.tags.occ_blocks::.cpu.inst   255.994562                       # Average occupied blocks per requestor
system.cpu.icache.tags.occ_percent::.cpu.inst     0.999979                       # Average percentage of cache occupancy
system.cpu.icache.tags.occ_percent::total     0.999979                       # Average percentage of cache occupancy
system.cpu.icache.tags.occ_task_id_blocks::1024          256                       # Occupied blocks per task id
system.cpu.icache.tags.age_task_id_blocks_1024::0           35                       # Occupied blocks per task id
system.cpu.icache.tags.age_task_id_blocks_1024::1          105                       # Occupied blocks per task id
system.cpu.icache.tags.age_task_id_blocks_1024::2          108                       # Occupied blocks per task id
system.cpu.icache.tags.age_task_id_blocks_1024::3            8                       # Occupied blocks per task id
system.cpu.icache.tags.occ_task_id_percent::1024            1                       # Percentage of cache occupancy per task id
system.cpu.icache.tags.tag_accesses        1692783467                       # Number of tag accesses
system.cpu.icache.tags.data_accesses       1692783467                       # Number of data accesses
system.cpu.icache.tags.power_state.pwrStateResidencyTicks::UNDEFINED 2376093630000                       # Cumulative time (in ticks) in various power states
system.cpu.interrupts.clk_domain.clock          16000                       # Clock period in ticks
system.cpu.itb.rdAccesses                           0                       # TLB accesses on read requests
system.cpu.itb.wrAccesses                   844890377                       # TLB accesses on write requests
system.cpu.itb.rdMisses                             0                       # TLB misses on read requests
system.cpu.itb.wrMisses                           158                       # TLB misses on write requests
system.cpu.itb.walker.power_state.pwrStateResidencyTicks::UNDEFINED 2376093630000                       # Cumulative time (in ticks) in various power states
system.cpu.power_state.pwrStateResidencyTicks::ON 2376093630000                       # Cumulative time (in ticks) in various power states
system.cpu.thread_0.numInsts                        0                       # Number of Instructions committed
system.cpu.thread_0.numOps                          0                       # Number of Ops committed
system.cpu.thread_0.numMemRefs                      0                       # Number of Memory References
system.l2bus.trans_dist::ReadResp             4310800                       # Transaction distribution
system.l2bus.trans_dist::WritebackDirty       1041887                       # Transaction distribution
system.l2bus.trans_dist::CleanEvict           4751793                       # Transaction distribution
system.l2bus.trans_dist::ReadExReq             203928                       # Transaction distribution
system.l2bus.trans_dist::ReadExResp            203928                       # Transaction distribution
system.l2bus.trans_dist::ReadSharedReq        4310800                       # Transaction distribution
system.l2bus.pkt_count_system.cpu.icache.mem_side_port::system.l2cache.cpu_side_port      9007883                       # Packet count per connected requestor and responder (bytes)
system.l2bus.pkt_count_system.cpu.dcache.mem_side_port::system.l2cache.cpu_side_port      4535021                       # Packet count per connected requestor and responder (bytes)
system.l2bus.pkt_count::total                13542904                       # Packet count per connected requestor and responder (bytes)
system.l2bus.pkt_size_system.cpu.icache.mem_side_port::system.l2cache.cpu_side_port    192173632                       # Cumulative packet size per connected requestor and responder (bytes)
system.l2bus.pkt_size_system.cpu.dcache.mem_side_port::system.l2cache.cpu_side_port    137294144                       # Cumulative packet size per connected requestor and responder (bytes)
system.l2bus.pkt_size::total                329467776                       # Cumulative packet size per connected requestor and responder (bytes)
system.l2bus.snoops                           1280232                       # Total snoops (count)
system.l2bus.snoopTraffic                    26155584                       # Total snoop traffic (bytes)
system.l2bus.snoop_fanout::samples            5794960                       # Request fanout histogram
system.l2bus.snoop_fanout::mean              0.074871                       # Request fanout histogram
system.l2bus.snoop_fanout::stdev             0.263184                       # Request fanout histogram
system.l2bus.snoop_fanout::underflows               0      0.00%      0.00% # Request fanout histogram
system.l2bus.snoop_fanout::0                  5361083     92.51%     92.51% # Request fanout histogram
system.l2bus.snoop_fanout::1                   433877      7.49%    100.00% # Request fanout histogram
system.l2bus.snoop_fanout::2                        0      0.00%    100.00% # Request fanout histogram
system.l2bus.snoop_fanout::overflows                0      0.00%    100.00% # Request fanout histogram
system.l2bus.snoop_fanout::min_value                0                       # Request fanout histogram
system.l2bus.snoop_fanout::max_value                1                       # Request fanout histogram
system.l2bus.snoop_fanout::total              5794960                       # Request fanout histogram
system.l2bus.power_state.pwrStateResidencyTicks::UNDEFINED 2376093630000                       # Cumulative time (in ticks) in various power states
system.l2bus.reqLayer0.occupancy          10294588000                       # Layer occupancy (ticks)
system.l2bus.reqLayer0.utilization                0.4                       # Layer utilization (%)
system.l2bus.respLayer0.occupancy          9008139000                       # Layer occupancy (ticks)
system.l2bus.respLayer0.utilization               0.4                       # Layer utilization (%)
system.l2bus.respLayer1.occupancy          4536045000                       # Layer occupancy (ticks)
system.l2bus.respLayer1.utilization               0.2                       # Layer utilization (%)
system.l2cache.demand_hits::.cpu.inst         2944152                       # number of demand (read+write) hits
system.l2cache.demand_hits::.cpu.data          464751                       # number of demand (read+write) hits
system.l2cache.demand_hits::total             3408903                       # number of demand (read+write) hits
system.l2cache.overall_hits::.cpu.inst        2944152                       # number of overall hits
system.l2cache.overall_hits::.cpu.data         464751                       # number of overall hits
system.l2cache.overall_hits::total            3408903                       # number of overall hits
system.l2cache.demand_misses::.cpu.inst         58561                       # number of demand (read+write) misses
system.l2cache.demand_misses::.cpu.data       1047264                       # number of demand (read+write) misses
system.l2cache.demand_misses::total           1105825                       # number of demand (read+write) misses
system.l2cache.overall_misses::.cpu.inst        58561                       # number of overall misses
system.l2cache.overall_misses::.cpu.data      1047264                       # number of overall misses
system.l2cache.overall_misses::total          1105825                       # number of overall misses
system.l2cache.demand_miss_latency::.cpu.inst   5675245000                       # number of demand (read+write) miss cycles
system.l2cache.demand_miss_latency::.cpu.data 106190950000                       # number of demand (read+write) miss cycles
system.l2cache.demand_miss_latency::total 111866195000                       # number of demand (read+write) miss cycles
system.l2cache.overall_miss_latency::.cpu.inst   5675245000                       # number of overall miss cycles
system.l2cache.overall_miss_latency::.cpu.data 106190950000                       # number of overall miss cycles
system.l2cache.overall_miss_latency::total 111866195000                       # number of overall miss cycles
system.l2cache.demand_accesses::.cpu.inst      3002713                       # number of demand (read+write) accesses
system.l2cache.demand_accesses::.cpu.data      1512015                       # number of demand (read+write) accesses
system.l2cache.demand_accesses::total         4514728                       # number of demand (read+write) accesses
system.l2cache.overall_accesses::.cpu.inst      3002713                       # number of overall (read+write) accesses
system.l2cache.overall_accesses::.cpu.data      1512015                       # number of overall (read+write) accesses
system.l2cache.overall_accesses::total        4514728                       # number of overall (read+write) accesses
system.l2cache.demand_miss_rate::.cpu.inst     0.019503                       # miss rate for demand accesses
system.l2cache.demand_miss_rate::.cpu.data     0.692628                       # miss rate for demand accesses
system.l2cache.demand_miss_rate::total       0.244937                       # miss rate for demand accesses
system.l2cache.overall_miss_rate::.cpu.inst     0.019503                       # miss rate for overall accesses
system.l2cache.overall_miss_rate::.cpu.data     0.692628                       # miss rate for overall accesses
system.l2cache.overall_miss_rate::total      0.244937                       # miss rate for overall accesses
system.l2cache.demand_avg_miss_latency::.cpu.inst 96911.681836                       # average overall miss latency
system.l2cache.demand_avg_miss_latency::.cpu.data 101398.453494                       # average overall miss latency
system.l2cache.demand_avg_miss_latency::total 101160.848235                       # average overall miss latency
system.l2cache.overall_avg_miss_latency::.cpu.inst 96911.681836                       # average overall miss latency
system.l2cache.overall_avg_miss_latency::.cpu.data 101398.453494                       # average overall miss latency
system.l2cache.overall_avg_miss_latency::total 101160.848235                       # average overall miss latency
system.l2cache.blocked_cycles::no_mshrs             0                       # number of cycles access was blocked
system.l2cache.blocked_cycles::no_targets            0                       # number of cycles access was blocked
system.l2cache.blocked::no_mshrs                    0                       # number of cycles access was blocked
system.l2cache.blocked::no_targets                  0                       # number of cycles access was blocked
system.l2cache.avg_blocked_cycles::no_mshrs          nan                       # average number of cycles each access was blocked
system.l2cache.avg_blocked_cycles::no_targets          nan                       # average number of cycles each access was blocked
system.l2cache.writebacks::.writebacks         408681                       # number of writebacks
system.l2cache.writebacks::total               408681                       # number of writebacks
system.l2cache.demand_mshr_misses::.cpu.inst        58561                       # number of demand (read+write) MSHR misses
system.l2cache.demand_mshr_misses::.cpu.data      1047264                       # number of demand (read+write) MSHR misses
system.l2cache.demand_mshr_misses::total      1105825                       # number of demand (read+write) MSHR misses
system.l2cache.overall_mshr_misses::.cpu.inst        58561                       # number of overall MSHR misses
system.l2cache.overall_mshr_misses::.cpu.data      1047264                       # number of overall MSHR misses
system.l2cache.overall_mshr_misses::total      1105825                       # number of overall MSHR misses
system.l2cache.demand_mshr_miss_latency::.cpu.inst   4504025000                       # number of demand (read+write) MSHR miss cycles
system.l2cache.demand_mshr_miss_latency::.cpu.data  85245670000                       # number of demand (read+write) MSHR miss cycles
system.l2cache.demand_mshr_miss_latency::total  89749695000                       # number of demand (read+write) MSHR miss cycles
system.l2cache.overall_mshr_miss_latency::.cpu.inst   4504025000                       # number of overall MSHR miss cycles
system.l2cache.overall_mshr_miss_latency::.cpu.data  85245670000                       # number of overall MSHR miss cycles
system.l2cache.overall_mshr_miss_latency::total  89749695000                       # number of overall MSHR miss cycles
system.l2cache.demand_mshr_miss_rate::.cpu.inst     0.019503                       # mshr miss rate for demand accesses
system.l2cache.demand_mshr_miss_rate::.cpu.data     0.692628                       # mshr miss rate for demand accesses
system.l2cache.demand_mshr_miss_rate::total     0.244937                       # mshr miss rate for demand accesses
system.l2cache.overall_mshr_miss_rate::.cpu.inst     0.019503                       # mshr miss rate for overall accesses
system.l2cache.overall_mshr_miss_rate::.cpu.data     0.692628                       # mshr miss rate for overall accesses
system.l2cache.overall_mshr_miss_rate::total     0.244937                       # mshr miss rate for overall accesses
system.l2cache.demand_avg_mshr_miss_latency::.cpu.inst 76911.681836                       # average overall mshr miss latency
system.l2cache.demand_avg_mshr_miss_latency::.cpu.data 81398.453494                       # average overall mshr miss latency
system.l2cache.demand_avg_mshr_miss_latency::total 81160.848235                       # average overall mshr miss latency
system.l2cache.overall_avg_mshr_miss_latency::.cpu.inst 76911.681836                       # average overall mshr miss latency
system.l2cache.overall_avg_mshr_miss_latency::.cpu.data 81398.453494                       # average overall mshr miss latency
system.l2cache.overall_avg_mshr_miss_latency::total 81160.848235                       # average overall mshr miss latency
system.l2cache.replacements                   1269246                       # number of replacements
system.l2cache.WritebackDirty_hits::.writebacks       631481                       # number of WritebackDirty hits
system.l2cache.WritebackDirty_hits::total       631481                       # number of WritebackDirty hits
system.l2cache.WritebackDirty_misses::.writebacks         1725                       # number of WritebackDirty misses
system.l2cache.WritebackDirty_misses::total         1725                       # number of WritebackDirty misses
system.l2cache.WritebackDirty_accesses::.writebacks       633206                       # number of WritebackDirty accesses(hits+misses)
system.l2cache.WritebackDirty_accesses::total       633206                       # number of WritebackDirty accesses(hits+misses)
system.l2cache.WritebackDirty_miss_rate::.writebacks     0.002724                       # miss rate for WritebackDirty accesses
system.l2cache.WritebackDirty_miss_rate::total     0.002724                       # miss rate for WritebackDirty accesses
system.l2cache.WritebackDirty_mshr_misses::.writebacks         1725                       # number of WritebackDirty MSHR misses
system.l2cache.WritebackDirty_mshr_misses::total         1725                       # number of WritebackDirty MSHR misses
system.l2cache.WritebackDirty_mshr_miss_rate::.writebacks     0.002724                       # mshr miss rate for WritebackDirty accesses
system.l2cache.WritebackDirty_mshr_miss_rate::total     0.002724                       # mshr miss rate for WritebackDirty accesses
system.l2cache.CleanEvict_mshr_misses::.writebacks       255314                       # number of CleanEvict MSHR misses
system.l2cache.CleanEvict_mshr_misses::total       255314                       # number of CleanEvict MSHR misses
system.l2cache.CleanEvict_mshr_miss_rate::.writebacks          inf                       # mshr miss rate for CleanEvict accesses
system.l2cache.CleanEvict_mshr_miss_rate::total          inf                       # mshr miss rate for CleanEvict accesses
system.l2cache.ReadExReq_hits::.cpu.data        23495                       # number of ReadExReq hits
system.l2cache.ReadExReq_hits::total            23495                       # number of ReadExReq hits
system.l2cache.ReadExReq_misses::.cpu.data       180433                       # number of ReadExReq misses
system.l2cache.ReadExReq_misses::total         180433                       # number of ReadExReq misses
system.l2cache.ReadExReq_miss_latency::.cpu.data  17947342000                       # number of ReadExReq miss cycles
system.l2cache.ReadExReq_miss_latency::total  17947342000                       # number of ReadExReq miss cycles
system.l2cache.ReadExReq_accesses::.cpu.data       203928                       # number of ReadExReq accesses(hits+misses)
system.l2cache.ReadExReq_accesses::total       203928                       # number of ReadExReq accesses(hits+misses)
system.l2cache.ReadExReq_miss_rate::.cpu.data     0.884788                       # miss rate for ReadExReq accesses
system.l2cache.ReadExReq_miss_rate::total     0.884788                       # miss rate for ReadExReq accesses
system.l2cache.ReadExReq_avg_miss_latency::.cpu.data 99468.179324                       # average ReadExReq miss latency
system.l2cache.ReadExReq_avg_miss_latency::total 99468.179324                       # average ReadExReq miss latency
system.l2cache.ReadExReq_mshr_misses::.cpu.data       180433                       # number of ReadExReq MSHR misses
system.l2cache.ReadExReq_mshr_misses::total       180433                       # number of ReadExReq MSHR misses
system.l2cache.ReadExReq_mshr_miss_latency::.cpu.data  14338682000                       # number of ReadExReq MSHR miss cycles
system.l2cache.ReadExReq_mshr_miss_latency::total  14338682000                       # number of ReadExReq MSHR miss cycles
system.l2cache.ReadExReq_mshr_miss_rate::.cpu.data     0.884788                       # mshr miss rate for ReadExReq accesses
system.l2cache.ReadExReq_mshr_miss_rate::total     0.884788                       # mshr miss rate for ReadExReq accesses
system.l2cache.ReadExReq_avg_mshr_miss_latency::.cpu.data 79468.179324                       # average ReadExReq mshr miss latency
system.l2cache.ReadExReq_avg_mshr_miss_latency::total 79468.179324                       # average ReadExReq mshr miss latency
system.l2cache.ReadSharedReq_hits::.cpu.inst      2944152                       # number of ReadSharedReq hits
system.l2cache.ReadSharedReq_hits::.cpu.data       441256                       # number of ReadSharedReq hits
system.l2cache.ReadSharedReq_hits::total      3385408                       # number of ReadSharedReq hits
system.l2cache.ReadSharedReq_misses::.cpu.inst        58561                       # number of ReadSharedReq misses
system.l2cache.ReadSharedReq_misses::.cpu.data       866831                       # number of ReadSharedReq misses
system.l2cache.ReadSharedReq_misses::total       925392                       # number of ReadSharedReq misses
system.l2cache.ReadSharedReq_miss_latency::.cpu.inst   5675245000                       # number of ReadSharedReq miss cycles
system.l2cache.ReadSharedReq_miss_latency::.cpu.data  88243608000                       # number of ReadSharedReq miss cycles
system.l2cache.ReadSharedReq_miss_latency::total  93918853000                       # number of ReadSharedReq miss cycles
system.l2cache.ReadSharedReq_accesses::.cpu.inst      3002713                       # number of ReadSharedReq accesses(hits+misses)
system.l2cache.ReadSharedReq_accesses::.cpu.data      1308087                       # number of ReadSharedReq accesses(hits+misses)
system.l2cache.ReadSharedReq_accesses::total      4310800                       # number of ReadSharedReq accesses(hits+misses)
system.l2cache.ReadSharedReq_miss_rate::.cpu.inst     0.019503                       # miss rate for ReadSharedReq accesses
system.l2cache.ReadSharedReq_miss_rate::.cpu.data     0.662671                       # miss rate for ReadSharedReq accesses
system.l2cache.ReadSharedReq_miss_rate::total     0.214668                       # miss rate for ReadSharedReq accesses
system.l2cache.ReadSharedReq_avg_miss_latency::.cpu.inst 96911.681836                       # average ReadSharedReq miss latency
system.l2cache.ReadSharedReq_avg_miss_latency::.cpu.data 101800.244800                       # average ReadSharedReq miss latency
system.l2cache.ReadSharedReq_avg_miss_latency::total 101490.884944                       # average ReadSharedReq miss latency
system.l2cache.ReadSharedReq_mshr_misses::.cpu.inst        58561                       # number of ReadSharedReq MSHR misses
system.l2cache.ReadSharedReq_mshr_misses::.cpu.data       866831                       # number of ReadSharedReq MSHR misses
system.l2cache.ReadSharedReq_mshr_misses::total       925392                       # number of ReadSharedReq MSHR misses
system.l2cache.ReadSharedReq_mshr_miss_latency::.cpu.inst   4504025000                       # number of ReadSharedReq MSHR miss cycles
system.l2cache.ReadSharedReq_mshr_miss_latency::.cpu.data  70906988000                       # number of ReadSharedReq MSHR miss cycles
system.l2cache.ReadSharedReq_mshr_miss_latency::total  75411013000                       # number of ReadSharedReq MSHR miss cycles
system.l2cache.ReadSharedReq_mshr_miss_rate::.cpu.inst     0.019503                       # mshr miss rate for ReadSharedReq accesses
system.l2cache.ReadSharedReq_mshr_miss_rate::.cpu.data     0.662671                       # mshr miss rate for ReadSharedReq accesses
system.l2cache.ReadSharedReq_mshr_miss_rate::total     0.214668                       # mshr miss rate for ReadSharedReq accesses
system.l2cache.ReadSharedReq_avg_mshr_miss_latency::.cpu.inst 76911.681836                       # average ReadSharedReq mshr miss latency
system.l2cache.ReadSharedReq_avg_mshr_miss_latency::.cpu.data 81800.244800                       # average ReadSharedReq mshr miss latency
system.l2cache.ReadSharedReq_avg_mshr_miss_latency::total 81490.884944                       # average ReadSharedReq mshr miss latency
system.l2cache.power_state.pwrStateResidencyTicks::UNDEFINED 2376093630000                       # Cumulative time (in ticks) in various power states
system.l2cache.replacement_policy.totalBypasses        12711                       # Total number of cache bypasses
system.l2cache.replacement_policy.effectiveBypasses         2997                       # Bypasses that correctly skipped non-reused blocks
system.l2cache.replacement_policy.ineffectiveBypasses          704                       # Bypasses that incorrectly skipped requested blocks
system.l2cache.replacement_policy.virtualEffectiveBypasses        29345                       # Virtual bypasses correctly predicting non-reused blocks
system.l2cache.replacement_policy.virtualIneffectiveBypasses        17628                       # Virtual bypasses incorrectly predicting requested blocks
system.l2cache.tags.tagsinuse             2047.792120                       # Cycle average of tags in use
system.l2cache.tags.total_refs                8760151                       # Total number of references to valid blocks.
system.l2cache.tags.sampled_refs              1271294                       # Sample count of references to valid blocks.
system.l2cache.tags.avg_refs                 6.890736                       # Average number of references to valid blocks.
system.l2cache.tags.warmup_cycle                86000                       # Cycle when the warmup percentage was hit.
system.l2cache.tags.occ_blocks::.writebacks   183.870179                       # Average occupied blocks per requestor
system.l2cache.tags.occ_blocks::.cpu.inst   270.729216                       # Average occupied blocks per requestor
system.l2cache.tags.occ_blocks::.cpu.data  1593.192725                       # Average occupied blocks per requestor
system.l2cache.tags.occ_percent::.writebacks     0.089780                       # Average percentage of cache occupancy
system.l2cache.tags.occ_percent::.cpu.inst     0.132192                       # Average percentage of cache occupancy
system.l2cache.tags.occ_percent::.cpu.data     0.777926                       # Average percentage of cache occupancy
system.l2cache.tags.occ_percent::total       0.999898                       # Average percentage of cache occupancy
system.l2cache.tags.occ_task_id_blocks::1024         2048                       # Occupied blocks per task id
system.l2cache.tags.age_task_id_blocks_1024::0           71                       # Occupied blocks per task id
system.l2cache.tags.age_task_id_blocks_1024::1          170                       # Occupied blocks per task id
system.l2cache.tags.age_task_id_blocks_1024::2          852                       # Occupied blocks per task id
system.l2cache.tags.age_task_id_blocks_1024::3          955                       # Occupied blocks per task id
system.l2cache.tags.occ_task_id_percent::1024            1                       # Percentage of cache occupancy per task id
system.l2cache.tags.tag_accesses             73496702                       # Number of tag accesses
system.l2cache.tags.data_accesses            73496702                       # Number of data accesses
system.l2cache.tags.power_state.pwrStateResidencyTicks::UNDEFINED 2376093630000                       # Cumulative time (in ticks) in various power states
system.mem_ctrl.avgPriority_.writebacks::samples    410404.00                       # Average QoS priority value for accepted requests
system.mem_ctrl.avgPriority_.cpu.inst::samples     58561.00                       # Average QoS priority value for accepted requests
system.mem_ctrl.avgPriority_.cpu.data::samples   1035018.00                       # Average QoS priority value for accepted requests
system.mem_ctrl.priorityMinLatency       0.000000018750                       # per QoS priority minimum request to response latency (s)
system.mem_ctrl.priorityMaxLatency       0.015475798500                       # per QoS priority maximum request to response latency (s)
system.mem_ctrl.numReadWriteTurnArounds         23609                       # Number of turnarounds from READ to WRITE
system.mem_ctrl.numWriteReadTurnArounds         23609                       # Number of turnarounds from WRITE to READ
system.mem_ctrl.numStayReadState              3195602                       # Number of times bus staying in READ state
system.mem_ctrl.numStayWriteState              387142                       # Number of times bus staying in WRITE state
system.mem_ctrl.readReqs                      1105825                       # Number of read requests accepted
system.mem_ctrl.writeReqs                      410406                       # Number of write requests accepted
system.mem_ctrl.readBursts                    1105825                       # Number of controller read bursts, including those serviced by the write queue
system.mem_ctrl.writeBursts                    410406                       # Number of controller write bursts, including those merged in the write queue
system.mem_ctrl.servicedByWrQ                   12246                       # Number of controller read bursts serviced by the write queue
system.mem_ctrl.mergedWrBursts                      2                       # Number of controller write bursts merged with an existing one
system.mem_ctrl.neitherReadNorWriteReqs             0                       # Number of requests that are neither read nor write
system.mem_ctrl.avgRdQLen                        1.00                       # Average read queue length when enqueuing
system.mem_ctrl.avgWrQLen                       24.68                       # Average write queue length when enqueuing
system.mem_ctrl.numRdRetry                          0                       # Number of times read queue was full causing retry
system.mem_ctrl.numWrRetry                          0                       # Number of times write queue was full causing retry
system.mem_ctrl.readPktSize::0                      0                       # Read request sizes (log2)
system.mem_ctrl.readPktSize::1                      0                       # Read request sizes (log2)
system.mem_ctrl.readPktSize::2                      0                       # Read request sizes (log2)
system.mem_ctrl.readPktSize::3                      0                       # Read request sizes (log2)
system.mem_ctrl.readPktSize::4                      0                       # Read request sizes (log2)
system.mem_ctrl.readPktSize::5                      0                       # Read request sizes (log2)
system.mem_ctrl.readPktSize::6                1105825                       # Read request sizes (log2)
system.mem_ctrl.writePktSize::0                     0                       # Write request sizes (log2)
system.mem_ctrl.writePktSize::1                     0                       # Write request sizes (log2)
system.mem_ctrl.writePktSize::2                     0                       # Write request sizes (log2)
system.mem_ctrl.writePktSize::3                     0                       # Write request sizes (log2)
system.mem_ctrl.writePktSize::4                     0                       # Write request sizes (log2)
system.mem_ctrl.writePktSize::5                     0                       # Write request sizes (log2)
system.mem_ctrl.writePktSize::6                410406                       # Write request sizes (log2)
system.mem_ctrl.rdQLenPdf::0                  1093579                       # What read queue length does an incoming req see
system.mem_ctrl.rdQLenPdf::1                        0                       # What read queue length does an incoming req see
system.mem_ctrl.rdQLenPdf::2                        0                       # What read queue length does an incoming req see
system.mem_ctrl.rdQLenPdf::3                        0                       # What read queue length does an incoming req see
system.mem_ctrl.rdQLenPdf::4                        0                       # What read queue length does an incoming req see
system.mem_ctrl.rdQLenPdf::5                        0                       # What read queue length does an incoming req see
system.mem_ctrl.rdQLenPdf::6                        0                       # What read queue length does an incoming req see
system.mem_ctrl.rdQLenPdf::7                        0                       # What read queue length does an incoming req see
system.mem_ctrl.rdQLenPdf::8                        0                       # What read queue length does an incoming req see
system.mem_ctrl.rdQLenPdf::9                        0                       # What read queue length does an incoming req see
system.mem_ctrl.rdQLenPdf::10                       0                       # What read queue length does an incoming req see
system.mem_ctrl.rdQLenPdf::11                       0                       # What read queue length does an incoming req see
system.mem_ctrl.rdQLenPdf::12                       0                       # What read queue length does an incoming req see
system.mem_ctrl.rdQLenPdf::13                       0                       # What read queue length does an incoming req see
system.mem_ctrl.rdQLenPdf::14                       0                       # What read queue length does an incoming req see
system.mem_ctrl.rdQLenPdf::15                       0                       # What read queue length does an incoming req see
system.mem_ctrl.rdQLenPdf::16                       0                       # What read queue length does an incoming req see
system.mem_ctrl.rdQLenPdf::17                       0                       # What read queue length does an incoming req see
system.mem_ctrl.rdQLenPdf::18                       0                       # What read queue length does an incoming req see
system.mem_ctrl.rdQLenPdf::19                       0                       # What read queue length does an incoming req see
system.mem_ctrl.rdQLenPdf::20                       0                       # What read queue length does an incoming req see
system.mem_ctrl.rdQLenPdf::21                       0                       # What read queue length does an incoming req see
system.mem_ctrl.rdQLenPdf::22                       0                       # What read queue length does an incoming req see
system.mem_ctrl.rdQLenPdf::23                       0                       # What read queue length does an incoming req see
system.mem_ctrl.rdQLenPdf::24                       0                       # What read queue length does an incoming req see
system.mem_ctrl.rdQLenPdf::25                       0                       # What read queue length does an incoming req see
system.mem_ctrl.rdQLenPdf::26                       0                       # What read queue length does an incoming req see
system.mem_ctrl.rdQLenPdf::27                       0                       # What read queue length does an incoming req see
system.mem_ctrl.rdQLenPdf::28                       0                       # What read queue length does an incoming req see
system.mem_ctrl.rdQLenPdf::29                       0                       # What read queue length does an incoming req see
system.mem_ctrl.rdQLenPdf::30                       0                       # What read queue length does an incoming req see
system.mem_ctrl.rdQLenPdf::31                       0                       # What read queue length does an incoming req see
system.mem_ctrl.wrQLenPdf::0                        1                       # What write queue length does an incoming req see
system.mem_ctrl.wrQLenPdf::1                        1                       # What write queue length does an incoming req see
system.mem_ctrl.wrQLenPdf::2                        1                       # What write queue length does an incoming req see
system.mem_ctrl.wrQLenPdf::3                        1                       # What write queue length does an incoming req see
system.mem_ctrl.wrQLenPdf::4                        1                       # What write queue length does an incoming req see
system.mem_ctrl.wrQLenPdf::5                        1                       # What write queue length does an incoming req see
system.mem_ctrl.wrQLenPdf::6                        1                       # What write queue length does an incoming req see
system.mem_ctrl.wrQLenPdf::7                        1                       # What write queue length does an incoming req see
system.mem_ctrl.wrQLenPdf::8                        1                       # What write queue length does an incoming req see
system.mem_ctrl.wrQLenPdf::9                        1                       # What write queue length does an incoming req see
system.mem_ctrl.wrQLenPdf::10                       1                       # What write queue length does an incoming req see
system.mem_ctrl.wrQLenPdf::11                       1                       # What write queue length does an incoming req see
system.mem_ctrl.wrQLenPdf::12                       1                       # What write queue length does an incoming req see
system.mem_ctrl.wrQLenPdf::13                       1                       # What write queue length does an incoming req see
system.mem_ctrl.wrQLenPdf::14                       1                       # What write queue length does an incoming req see
system.mem_ctrl.wrQLenPdf::15                   15452                       # What write queue length does an incoming req see
system.mem_ctrl.wrQLenPdf::16                   16292                       # What write queue length does an incoming req see
system.mem_ctrl.wrQLenPdf::17                   23251                       # What write queue length does an incoming req see
system.mem_ctrl.wrQLenPdf::18                   23976                       # What write queue length does an incoming req see
system.mem_ctrl.wrQLenPdf::19                   23837                       # What write queue length does an incoming req see
system.mem_ctrl.wrQLenPdf::20                   23659                       # What write queue length does an incoming req see
system.mem_ctrl.wrQLenPdf::21                   24152                       # What write queue length does an incoming req see
system.mem_ctrl.wrQLenPdf::22                   23635                       # What write queue length does an incoming req see
system.mem_ctrl.wrQLenPdf::23                   23619                       # What write queue length does an incoming req see
system.mem_ctrl.wrQLenPdf::24                   23612                       # What write queue length does an incoming req see
system.mem_ctrl.wrQLenPdf::25                   23622                       # What write queue length does an incoming req see
system.mem_ctrl.wrQLenPdf::26                   23610                       # What write queue length does an incoming req see
system.mem_ctrl.wrQLenPdf::27                   23610                       # What write queue length does an incoming req see
system.mem_ctrl.wrQLenPdf::28                   23609                       # What write queue length does an incoming req see
system.mem_ctrl.wrQLenPdf::29                   23609                       # What write queue length does an incoming req see
system.mem_ctrl.wrQLenPdf::30                   23609                       # What write queue length does an incoming req see
system.mem_ctrl.wrQLenPdf::31                   23609                       # What write queue length does an incoming req see
system.mem_ctrl.wrQLenPdf::32                   23609                       # What write queue length does an incoming req see
system.mem_ctrl.wrQLenPdf::33                      17                       # What write queue length does an incoming req see
system.mem_ctrl.wrQLenPdf::34                       0                       # What write queue length does an incoming req see
system.mem_ctrl.wrQLenPdf::35                       0                       # What write queue length does an incoming req see
system.mem_ctrl.wrQLenPdf::36                       0                       # What write queue length does an incoming req see
system.mem_ctrl.wrQLenPdf::37                       0                       # What write queue length does an incoming req see
system.mem_ctrl.wrQLenPdf::38                       0                       # What write queue length does an incoming req see
system.mem_ctrl.wrQLenPdf::39                       0                       # What write queue length does an incoming req see
system.mem_ctrl.wrQLenPdf::40                       0                       # What write queue length does an incoming req see
system.mem_ctrl.wrQLenPdf::41                       0                       # What write queue length does an incoming req see
system.mem_ctrl.wrQLenPdf::42                       0                       # What write queue length does an incoming req see
system.mem_ctrl.wrQLenPdf::43                       0                       # What write queue length does an incoming req see
system.mem_ctrl.wrQLenPdf::44                       0                       # What write queue length does an incoming req see
system.mem_ctrl.wrQLenPdf::45                       0                       # What write queue length does an incoming req see
system.mem_ctrl.wrQLenPdf::46                       0                       # What write queue length does an incoming req see
system.mem_ctrl.wrQLenPdf::47                       0                       # What write queue length does an incoming req see
system.mem_ctrl.wrQLenPdf::48                       0                       # What write queue length does an incoming req see
system.mem_ctrl.wrQLenPdf::49                       0                       # What write queue length does an incoming req see
system.mem_ctrl.wrQLenPdf::50                       0                       # What write queue length does an incoming req see
system.mem_ctrl.wrQLenPdf::51                       0                       # What write queue length does an incoming req see
system.mem_ctrl.wrQLenPdf::52                       0                       # What write queue length does an incoming req see
system.mem_ctrl.wrQLenPdf::53                       0                       # What write queue length does an incoming req see
system.mem_ctrl.wrQLenPdf::54                       0                       # What write queue length does an incoming req see
system.mem_ctrl.wrQLenPdf::55                       0                       # What write queue length does an incoming req see
system.mem_ctrl.wrQLenPdf::56                       0                       # What write queue length does an incoming req see
system.mem_ctrl.wrQLenPdf::57                       0                       # What write queue length does an incoming req see
system.mem_ctrl.wrQLenPdf::58                       0                       # What write queue length does an incoming req see
system.mem_ctrl.wrQLenPdf::59                       0                       # What write queue length does an incoming req see
system.mem_ctrl.wrQLenPdf::60                       0                       # What write queue length does an incoming req see
system.mem_ctrl.wrQLenPdf::61                       0                       # What write queue length does an incoming req see
system.mem_ctrl.wrQLenPdf::62                       0                       # What write queue length does an incoming req see
system.mem_ctrl.wrQLenPdf::63                       0                       # What write queue length does an incoming req see
system.mem_ctrl.rdPerTurnAround::samples        23609                       # Reads before turning the bus around for writes
system.mem_ctrl.rdPerTurnAround::mean       46.319963                       # Reads before turning the bus around for writes
system.mem_ctrl.rdPerTurnAround::gmean      37.315690                       # Reads before turning the bus around for writes
system.mem_ctrl.rdPerTurnAround::stdev      57.474949                       # Reads before turning the bus around for writes
system.mem_ctrl.rdPerTurnAround::0-127          23146     98.04%     98.04% # Reads before turning the bus around for writes
system.mem_ctrl.rdPerTurnAround::128-255          388      1.64%     99.68% # Reads before turning the bus around for writes
system.mem_ctrl.rdPerTurnAround::256-383           12      0.05%     99.73% # Reads before turning the bus around for writes
system.mem_ctrl.rdPerTurnAround::640-767            3      0.01%     99.75% # Reads before turning the bus around for writes
system.mem_ctrl.rdPerTurnAround::768-895            8      0.03%     99.78% # Reads before turning the bus around for writes
system.mem_ctrl.rdPerTurnAround::896-1023           40      0.17%     99.95% # Reads before turning the bus around for writes
system.mem_ctrl.rdPerTurnAround::1024-1151           11      0.05%    100.00% # Reads before turning the bus around for writes
system.mem_ctrl.rdPerTurnAround::2688-2815            1      0.00%    100.00% # Reads before turning the bus around for writes
system.mem_ctrl.rdPerTurnAround::total          23609                       # Reads before turning the bus around for writes
system.mem_ctrl.wrPerTurnAround::samples        23609                       # Writes before turning the bus around for reads
system.mem_ctrl.wrPerTurnAround::mean       17.382439                       # Writes before turning the bus around for reads
system.mem_ctrl.wrPerTurnAround::gmean      17.355493                       # Writes before turning the bus around for reads
system.mem_ctrl.wrPerTurnAround::stdev       0.956349                       # Writes before turning the bus around for reads
system.mem_ctrl.wrPerTurnAround::16              7268     30.78%     30.78% # Writes before turning the bus around for reads
system.mem_ctrl.wrPerTurnAround::17               778      3.30%     34.08% # Writes before turning the bus around for reads
system.mem_ctrl.wrPerTurnAround::18             14835     62.84%     96.92% # Writes before turning the bus around for reads
system.mem_ctrl.wrPerTurnAround::19               722      3.06%     99.97% # Writes before turning the bus around for reads
system.mem_ctrl.wrPerTurnAround::20                 6      0.03%    100.00% # Writes before turning the bus around for reads
system.mem_ctrl.wrPerTurnAround::total          23609                       # Writes before turning the bus around for reads
system.mem_ctrl.bytesReadWrQ                   783744                       # Total number of bytes read from write queue
system.mem_ctrl.bytesReadSys                 70772800                       # Total read bytes from the system interface side
system.mem_ctrl.bytesWrittenSys              26265984                       # Total written bytes from the system interface side
system.mem_ctrl.avgRdBWSys                      29.79                       # Average system read bandwidth in MiByte/s
[...]
system.mem_ctrl.requestorReadRate::.cpu.data 27878174.144172929227                       # Per-requestor bytes read from memory rate (Bytes/sec)
system.mem_ctrl.requestorWriteRate::.writebacks 11053625.020660486072                       # Per-requestor bytes write to memory rate (Bytes/sec)
system.mem_ctrl.requestorReadAccesses::.cpu.inst        58561                       # Per-requestor read serviced memory accesses
system.mem_ctrl.requestorReadAccesses::.cpu.data      1047264                       # Per-requestor read serviced memory accesses
system.mem_ctrl.requestorWriteAccesses::.writebacks       410406                       # Per-requestor write serviced memory accesses
system.mem_ctrl.requestorReadTotalLat::.cpu.inst   1499964750                       # Per-requestor read total memory access latency
system.mem_ctrl.requestorReadTotalLat::.cpu.data  31557054500                       # Per-requestor read total memory access latency
system.mem_ctrl.requestorWriteTotalLat::.writebacks 56098696433750                       # Per-requestor write total memory access latency
system.mem_ctrl.requestorReadAvgLat::.cpu.inst     25613.71                       # Per-requestor read average memory access latency
system.mem_ctrl.requestorReadAvgLat::.cpu.data     30132.86                       # Per-requestor read average memory access latency
system.mem_ctrl.requestorWriteAvgLat::.writebacks 136690731.70                       # Per-requestor write average memory access latency
system.mem_ctrl.dram.bytes_read::.cpu.inst      3747904                       # Number of bytes read from this memory
system.mem_ctrl.dram.bytes_read::.cpu.data     67024896                       # Number of bytes read from this memory
system.mem_ctrl.dram.bytes_read::total       70772800                       # Number of bytes read from this memory
system.mem_ctrl.dram.bytes_inst_read::.cpu.inst      3747904                       # Number of instructions bytes read from this memory
system.mem_ctrl.dram.bytes_inst_read::total      3747904                       # Number of instructions bytes read from this memory
system.mem_ctrl.dram.bytes_written::.writebacks     26265984                       # Number of bytes written to this memory
system.mem_ctrl.dram.bytes_written::total     26265984                       # Number of bytes written to this memory
system.mem_ctrl.dram.num_reads::.cpu.inst        58561                       # Number of read requests responded to by this memory
system.mem_ctrl.dram.num_reads::.cpu.data      1047264                       # Number of read requests responded to by this memory
system.mem_ctrl.dram.num_reads::total         1105825                       # Number of read requests responded to by this memory
system.mem_ctrl.dram.num_writes::.writebacks       410406                       # Number of write requests responded to by this memory
system.mem_ctrl.dram.num_writes::total         410406                       # Number of write requests responded to by this memory
system.mem_ctrl.dram.bw_read::.cpu.inst       1577339                       # Total read bandwidth from this memory (bytes/s)
system.mem_ctrl.dram.bw_read::.cpu.data      28208020                       # Total read bandwidth from this memory (bytes/s)
system.mem_ctrl.dram.bw_read::total          29785358                       # Total read bandwidth from this memory (bytes/s)
system.mem_ctrl.dram.bw_inst_read::.cpu.inst      1577339                       # Instruction read bandwidth from this memory (bytes/s)
system.mem_ctrl.dram.bw_inst_read::total      1577339                       # Instruction read bandwidth from this memory (bytes/s)
system.mem_ctrl.dram.bw_write::.writebacks     11054271                       # Write bandwidth from this memory (bytes/s)
system.mem_ctrl.dram.bw_write::total         11054271                       # Write bandwidth from this memory (bytes/s)
system.mem_ctrl.dram.bw_total::.writebacks     11054271                       # Total bandwidth to/from this memory (bytes/s)
system.mem_ctrl.dram.bw_total::.cpu.inst      1577339                       # Total bandwidth to/from this memory (bytes/s)
system.mem_ctrl.dram.bw_total::.cpu.data     28208020                       # Total bandwidth to/from this memory (bytes/s)
system.mem_ctrl.dram.bw_total::total         40839630                       # Total bandwidth to/from this memory (bytes/s)
system.mem_ctrl.dram.readBursts               1093579                       # Number of DRAM read bursts
system.mem_ctrl.dram.writeBursts               410382                       # Number of DRAM write bursts
system.mem_ctrl.dram.perBankRdBursts::0         63737                       # Per bank write bursts
system.mem_ctrl.dram.perBankRdBursts::1         84846                       # Per bank write bursts
system.mem_ctrl.dram.perBankRdBursts::2         55499                       # Per bank write bursts
system.mem_ctrl.dram.perBankRdBursts::3         77815                       # Per bank write bursts
system.mem_ctrl.dram.perBankRdBursts::4         60400                       # Per bank write bursts
system.mem_ctrl.dram.perBankRdBursts::5         75660                       # Per bank write bursts
system.mem_ctrl.dram.perBankRdBursts::6         51117                       # Per bank write bursts
system.mem_ctrl.dram.perBankRdBursts::7         65344                       # Per bank write bursts
system.mem_ctrl.dram.perBankRdBursts::8         52160                       # Per bank write bursts
system.mem_ctrl.dram.perBankRdBursts::9         60844                       # Per bank write bursts
system.mem_ctrl.dram.perBankRdBursts::10        49704                       # Per bank write bursts
system.mem_ctrl.dram.perBankRdBursts::11        82770                       # Per bank write bursts
system.mem_ctrl.dram.perBankRdBursts::12        71003                       # Per bank write bursts
system.mem_ctrl.dram.perBankRdBursts::13        82975                       # Per bank write bursts
system.mem_ctrl.dram.perBankRdBursts::14        65904                       # Per bank write bursts
system.mem_ctrl.dram.perBankRdBursts::15        93801                       # Per bank write bursts
system.mem_ctrl.dram.perBankWrBursts::0         16315                       # Per bank write bursts
system.mem_ctrl.dram.perBankWrBursts::1         37723                       # Per bank write bursts
system.mem_ctrl.dram.perBankWrBursts::2         26665                       # Per bank write bursts
system.mem_ctrl.dram.perBankWrBursts::3         37164                       # Per bank write bursts
system.mem_ctrl.dram.perBankWrBursts::4         34455                       # Per bank write bursts
system.mem_ctrl.dram.perBankWrBursts::5         50412                       # Per bank write bursts
system.mem_ctrl.dram.perBankWrBursts::6         31483                       # Per bank write bursts
system.mem_ctrl.dram.perBankWrBursts::7         36257                       # Per bank write bursts
system.mem_ctrl.dram.perBankWrBursts::8         31406                       # Per bank write bursts
system.mem_ctrl.dram.perBankWrBursts::9         32351                       # Per bank write bursts
system.mem_ctrl.dram.perBankWrBursts::10        12734                       # Per bank write bursts
system.mem_ctrl.dram.perBankWrBursts::11        10695                       # Per bank write bursts
system.mem_ctrl.dram.perBankWrBursts::12        13528                       # Per bank write bursts
system.mem_ctrl.dram.perBankWrBursts::13        12899                       # Per bank write bursts
system.mem_ctrl.dram.perBankWrBursts::14        12788                       # Per bank write bursts
system.mem_ctrl.dram.perBankWrBursts::15        13507                       # Per bank write bursts
system.mem_ctrl.dram.totQLat              12552413000                       # Total ticks spent queuing
system.mem_ctrl.dram.totBusLat             5467895000                       # Total ticks spent in databus transfers
system.mem_ctrl.dram.totMemAccLat         33057019250                       # Total ticks spent from burst creation until serviced by the DRAM
system.mem_ctrl.dram.avgQLat                 11478.29                       # Average queueing delay per DRAM burst
system.mem_ctrl.dram.avgBusLat                5000.00                       # Average bus latency per DRAM burst
system.mem_ctrl.dram.avgMemAccLat            30228.29                       # Average memory access latency per DRAM burst
system.mem_ctrl.dram.readRowHits               642193                       # Number of row buffer hits during reads
system.mem_ctrl.dram.writeRowHits              339891                       # Number of row buffer hits during writes
system.mem_ctrl.dram.readRowHitRate             58.72                       # Row buffer hit rate for reads
system.mem_ctrl.dram.writeRowHitRate            82.82                       # Row buffer hit rate for writes
system.mem_ctrl.dram.bytesPerActivate::samples       521874                       # Bytes accessed per row activation
system.mem_ctrl.dram.bytesPerActivate::mean   184.436856                       # Bytes accessed per row activation
system.mem_ctrl.dram.bytesPerActivate::gmean   122.615749                       # Bytes accessed per row activation
system.mem_ctrl.dram.bytesPerActivate::stdev   212.963766                       # Bytes accessed per row activation
system.mem_ctrl.dram.bytesPerActivate::0-127       270248     51.78%     51.78% # Bytes accessed per row activation
system.mem_ctrl.dram.bytesPerActivate::128-255       127516     24.43%     76.22% # Bytes accessed per row activation
system.mem_ctrl.dram.bytesPerActivate::256-383        53835     10.32%     86.53% # Bytes accessed per row activation
system.mem_ctrl.dram.bytesPerActivate::384-511        28420      5.45%     91.98% # Bytes accessed per row activation
system.mem_ctrl.dram.bytesPerActivate::512-639        10231      1.96%     93.94% # Bytes accessed per row activation
system.mem_ctrl.dram.bytesPerActivate::640-767         7167      1.37%     95.31% # Bytes accessed per row activation
system.mem_ctrl.dram.bytesPerActivate::768-895         6244      1.20%     96.51% # Bytes accessed per row activation
system.mem_ctrl.dram.bytesPerActivate::896-1023         5349      1.02%     97.54% # Bytes accessed per row activation
system.mem_ctrl.dram.bytesPerActivate::1024-1151        12864      2.46%    100.00% # Bytes accessed per row activation
system.mem_ctrl.dram.bytesPerActivate::total       521874                       # Bytes accessed per row activation
system.mem_ctrl.dram.bytesRead               69989056                       # Total number of bytes read from DRAM
system.mem_ctrl.dram.bytesWritten            26264448                       # Total number of bytes written to DRAM
system.mem_ctrl.dram.avgRdBW                29.455513                       # Average DRAM read bandwidth in MiBytes/s
system.mem_ctrl.dram.avgWrBW                11.053625                       # Average DRAM write bandwidth in MiBytes/s
system.mem_ctrl.dram.peakBW                  12800.00                       # Theoretical peak bandwidth in MiByte/s
system.mem_ctrl.dram.busUtil                     0.32                       # Data bus utilization in percentage
system.mem_ctrl.dram.busUtilRead                 0.23                       # Data bus utilization in percentage for reads
system.mem_ctrl.dram.busUtilWrite                0.09                       # Data bus utilization in percentage for writes
system.mem_ctrl.dram.pageHitRate                65.30                       # Row buffer hit rate, read and write combined
system.mem_ctrl.dram.power_state.pwrStateResidencyTicks::UNDEFINED 2376093630000                       # Cumulative time (in ticks) in various power states
system.mem_ctrl.dram.rank0.actEnergy       1676464860                       # Energy for activate commands per rank (pJ)
system.mem_ctrl.dram.rank0.preEnergy        891058410                       # Energy for precharge commands per rank (pJ)
system.mem_ctrl.dram.rank0.readEnergy      3815744520                       # Energy for read commands per rank (pJ)
system.mem_ctrl.dram.rank0.writeEnergy     1411874280                       # Energy for write commands per rank (pJ)
system.mem_ctrl.dram.rank0.refreshEnergy 187566615600.000031                       # Energy for refresh commands per rank (pJ)
system.mem_ctrl.dram.rank0.actBackEnergy 272382666390                       # Energy for active background per rank (pJ)
system.mem_ctrl.dram.rank0.preBackEnergy 683045076960                       # Energy for precharge background per rank (pJ)
system.mem_ctrl.dram.rank0.actPowerDownEnergy            0                       # Energy for active power-down per rank (pJ)
system.mem_ctrl.dram.rank0.prePowerDownEnergy            0                       # Energy for precharge power-down per rank (pJ)
system.mem_ctrl.dram.rank0.selfRefreshEnergy            0                       # Energy for self refresh per rank (pJ)
system.mem_ctrl.dram.rank0.totalEnergy   1150789501020                       # Total energy per rank (pJ)
system.mem_ctrl.dram.rank0.averagePower    484.319930                       # Core power per rank (mW)
system.mem_ctrl.dram.rank0.totalIdleTime            0                       # Total Idle time Per DRAM Rank
system.mem_ctrl.dram.rank0.pwrStateTime::IDLE 1773123857000                       # Time in different power states
system.mem_ctrl.dram.rank0.pwrStateTime::REF  79342900000                       # Time in different power states
system.mem_ctrl.dram.rank0.pwrStateTime::SREF            0                       # Time in different power states
system.mem_ctrl.dram.rank0.pwrStateTime::PRE_PDN            0                       # Time in different power states
system.mem_ctrl.dram.rank0.pwrStateTime::ACT 523626873000                       # Time in different power states
system.mem_ctrl.dram.rank0.pwrStateTime::ACT_PDN            0                       # Time in different power states
system.mem_ctrl.dram.rank1.actEnergy       2049736920                       # Energy for activate commands per rank (pJ)
system.mem_ctrl.dram.rank1.preEnergy       1089453420                       # Energy for precharge commands per rank (pJ)
system.mem_ctrl.dram.rank1.readEnergy      3992409540                       # Energy for read commands per rank (pJ)
system.mem_ctrl.dram.rank1.writeEnergy      730319760                       # Energy for write commands per rank (pJ)
system.mem_ctrl.dram.rank1.refreshEnergy 187566615600.000031                       # Energy for refresh commands per rank (pJ)
system.mem_ctrl.dram.rank1.actBackEnergy 232945876320                       # Energy for active background per rank (pJ)
system.mem_ctrl.dram.rank1.preBackEnergy 716255005440                       # Energy for precharge background per rank (pJ)
system.mem_ctrl.dram.rank1.actPowerDownEnergy            0                       # Energy for active power-down per rank (pJ)
system.mem_ctrl.dram.rank1.prePowerDownEnergy            0                       # Energy for precharge power-down per rank (pJ)
system.mem_ctrl.dram.rank1.selfRefreshEnergy            0                       # Energy for self refresh per rank (pJ)
system.mem_ctrl.dram.rank1.totalEnergy   1144629417000                       # Total energy per rank (pJ)
system.mem_ctrl.dram.rank1.averagePower    481.727404                       # Core power per rank (mW)
system.mem_ctrl.dram.rank1.totalIdleTime            0                       # Total Idle time Per DRAM Rank
system.mem_ctrl.dram.rank1.pwrStateTime::IDLE 1859870916250                       # Time in different power states
system.mem_ctrl.dram.rank1.pwrStateTime::REF  79342900000                       # Time in different power states
system.mem_ctrl.dram.rank1.pwrStateTime::SREF            0                       # Time in different power states
system.mem_ctrl.dram.rank1.pwrStateTime::PRE_PDN            0                       # Time in different power states
system.mem_ctrl.dram.rank1.pwrStateTime::ACT 436879813750                       # Time in different power states
system.mem_ctrl.dram.rank1.pwrStateTime::ACT_PDN            0                       # Time in different power states
system.mem_ctrl.power_state.pwrStateResidencyTicks::UNDEFINED 2376093630000                       # Cumulative time (in ticks) in various power states
system.membus.trans_dist::ReadResp             925392                       # Transaction distribution
system.membus.trans_dist::WritebackDirty       410406                       # Transaction distribution
system.membus.trans_dist::CleanEvict           692988                       # Transaction distribution
system.membus.trans_dist::ReadExReq            180433                       # Transaction distribution
system.membus.trans_dist::ReadExResp           180433                       # Transaction distribution
system.membus.trans_dist::ReadSharedReq        925392                       # Transaction distribution
system.membus.pkt_count_system.l2cache.mem_side_port::system.mem_ctrl.port      3315044                       # Packet count per connected requestor and responder (bytes)
system.membus.pkt_count_system.l2cache.mem_side_port::total      3315044                       # Packet count per connected requestor and responder (bytes)
system.membus.pkt_count::total                3315044                       # Packet count per connected requestor and responder (bytes)
system.membus.pkt_size_system.l2cache.mem_side_port::system.mem_ctrl.port     97038784                       # Cumulative packet size per connected requestor and responder (bytes)
system.membus.pkt_size_system.l2cache.mem_side_port::total     97038784                       # Cumulative packet size per connected requestor and responder (bytes)
system.membus.pkt_size::total                97038784                       # Cumulative packet size per connected requestor and responder (bytes)
system.membus.snoops                                0                       # Total snoops (count)
system.membus.snoopTraffic                          0                       # Total snoop traffic (bytes)
system.membus.snoop_fanout::samples           1105825                       # Request fanout histogram
system.membus.snoop_fanout::mean                    0                       # Request fanout histogram
system.membus.snoop_fanout::stdev                   0                       # Request fanout histogram
system.membus.snoop_fanout::underflows              0      0.00%      0.00% # Request fanout histogram
system.membus.snoop_fanout::0                 1105825    100.00%    100.00% # Request fanout histogram
system.membus.snoop_fanout::1                       0      0.00%    100.00% # Request fanout histogram
system.membus.snoop_fanout::overflows               0      0.00%    100.00% # Request fanout histogram
system.membus.snoop_fanout::min_value               0                       # Request fanout histogram
system.membus.snoop_fanout::max_value               0                       # Request fanout histogram
system.membus.snoop_fanout::total             1105825                       # Request fanout histogram
system.membus.power_state.pwrStateResidencyTicks::UNDEFINED 2376093630000                       # Cumulative time (in ticks) in various power states
system.membus.reqLayer2.occupancy          3850843000                       # Layer occupancy (ticks)
system.membus.reqLayer2.utilization               0.2                       # Layer utilization (%)
system.membus.respLayer0.occupancy         5929716750                       # Layer occupancy (ticks)
system.membus.respLayer0.utilization              0.2                       # Layer utilization (%)

---------- End Simulation Statistics   ----------
