
---------- Begin Simulation Statistics ----------
final_tick                               127597307000                       # Number of ticks from beginning of simulation (restored from checkpoints and never reset)
host_inst_rate                                 373465                       # Simulator instruction rate (inst/s)
host_mem_usage                                 667216                       # Number of bytes of host memory used
host_op_rate                                   702446                       # Simulator op (including micro ops) rate (op/s)
host_seconds                                    58.14                       # Real time elapsed on the host
host_tick_rate                             2194791495                       # Simulator tick rate (ticks/s)
sim_freq                                 1000000000000                       # Frequency of simulated ticks
sim_insts                                    21711842                       # Number of instructions simulated
sim_ops                                      40837653                       # Number of ops (including micro ops) simulated
sim_seconds                                  0.127597                       # Number of seconds simulated
sim_ticks                                127597307000                       # Number of ticks simulated
system.cpu.Branches                           1689428                       # Number of branches fetched
system.cpu.committedInsts                    21711842                       # Number of instructions committed
system.cpu.committedOps                      40837653                       # Number of ops (including micro ops) committed
system.cpu.idle_fraction                     0.000000                       # Percentage of idle cycles
system.cpu.not_idle_fraction                 1.000000                       # Percentage of non-idle cycles
system.cpu.numCycles                        127597307                       # number of cpu cycles simulated
system.cpu.numWorkItemsCompleted                    0                       # number of work items this cpu completed
system.cpu.numWorkItemsStarted                      0                       # number of work items this cpu started
system.cpu.num_busy_cycles               127597306.999000                       # Number of busy cycles
system.cpu.num_cc_register_reads              9199786                       # number of times the CC registers were read
system.cpu.num_cc_register_writes             7310705                       # number of times the CC registers were written
system.cpu.num_conditional_control_insts      1625117                       # number of instructions that are conditional controls
system.cpu.num_fp_alu_accesses               28213433                       # Number of float alu accesses
system.cpu.num_fp_insts                      28213433                       # number of float instructions
system.cpu.num_fp_register_reads             42716802                       # number of times the floating registers were read
system.cpu.num_fp_register_writes            25063170                       # number of times the floating registers were written
system.cpu.num_func_calls                       38512                       # number of times a function call or return occured
system.cpu.num_idle_cycles                   0.001000                       # Number of idle cycles
system.cpu.num_int_alu_accesses              26037507                       # Number of integer alu accesses
system.cpu.num_int_insts                     26037507                       # number of integer instructions
system.cpu.num_int_register_reads            61734654                       # number of times the integer registers were read
system.cpu.num_int_register_writes           10537959                       # number of times the integer registers were written
system.cpu.num_load_insts                    11754402                       # Number of load instructions
system.cpu.num_mem_refs                      15047328                       # number of memory refs
system.cpu.num_store_insts                    3292926                       # Number of store instructions
system.cpu.num_vec_alu_accesses                     0                       # Number of vector alu accesses
system.cpu.num_vec_insts                            0                       # number of vector instructions
system.cpu.num_vec_register_reads                   0                       # number of times the vector registers were read
system.cpu.num_vec_register_writes                  0                       # number of times the vector registers were written
system.cpu.op_class::No_OpClass                 82071      0.20%      0.20% # Class of executed instruction
system.cpu.op_class::IntAlu                  13296257     32.56%     32.76% # Class of executed instruction
system.cpu.op_class::IntMult                    80135      0.20%     32.96% # Class of executed instruction
system.cpu.op_class::IntDiv                       280      0.00%     32.96% # Class of executed instruction
system.cpu.op_class::FloatAdd                  374599      0.92%     33.87% # Class of executed instruction
system.cpu.op_class::FloatCmp                       0      0.00%     33.87% # Class of executed instruction
system.cpu.op_class::FloatCvt                       0      0.00%     33.87% # Class of executed instruction
system.cpu.op_class::FloatMult                      0      0.00%     33.87% # Class of executed instruction
system.cpu.op_class::FloatMultAcc                   0      0.00%     33.87% # Class of executed instruction
system.cpu.op_class::FloatDiv                       0      0.00%     33.87% # Class of executed instruction
system.cpu.op_class::FloatMisc                      0      0.00%     33.87% # Class of executed instruction
system.cpu.op_class::FloatSqrt                      0      0.00%     33.87% # Class of executed instruction
system.cpu.op_class::SimdAdd                       24      0.00%     33.87% # Class of executed instruction
system.cpu.op_class::SimdAddAcc                     0      0.00%     33.87% # Class of executed instruction
system.cpu.op_class::SimdAlu                   398960      0.98%     34.85% # Class of executed instruction
system.cpu.op_class::SimdCmp                       24      0.00%     34.85% # Class of executed instruction
system.cpu.op_class::SimdCvt                      730      0.00%     34.85% # Class of executed instruction
system.cpu.op_class::SimdMisc                  147076      0.36%     35.21% # Class of executed instruction
system.cpu.op_class::SimdMult                       0      0.00%     35.21% # Class of executed instruction
system.cpu.op_class::SimdMultAcc                    0      0.00%     35.21% # Class of executed instruction
system.cpu.op_class::SimdShift                      0      0.00%     35.21% # Class of executed instruction
system.cpu.op_class::SimdShiftAcc                   0      0.00%     35.21% # Class of executed instruction
system.cpu.op_class::SimdDiv                        0      0.00%     35.21% # Class of executed instruction
system.cpu.op_class::SimdSqrt                       0      0.00%     35.21% # Class of executed instruction
system.cpu.op_class::SimdFloatAdd             8763369     21.46%     56.67% # Class of executed instruction
system.cpu.op_class::SimdFloatAlu                   0      0.00%     56.67% # Class of executed instruction
system.cpu.op_class::SimdFloatCmp                   0      0.00%     56.67% # Class of executed instruction
system.cpu.op_class::SimdFloatCvt              340277      0.83%     57.51% # Class of executed instruction
system.cpu.op_class::SimdFloatDiv                   6      0.00%     57.51% # Class of executed instruction
system.cpu.op_class::SimdFloatMisc                  0      0.00%     57.51% # Class of executed instruction
system.cpu.op_class::SimdFloatMult            2306615      5.65%     63.15% # Class of executed instruction
system.cpu.op_class::SimdFloatMultAcc               0      0.00%     63.15% # Class of executed instruction
system.cpu.op_class::SimdFloatSqrt                  4      0.00%     63.15% # Class of executed instruction
system.cpu.op_class::SimdReduceAdd                  0      0.00%     63.15% # Class of executed instruction
system.cpu.op_class::SimdReduceAlu                  0      0.00%     63.15% # Class of executed instruction
system.cpu.op_class::SimdReduceCmp                  0      0.00%     63.15% # Class of executed instruction
system.cpu.op_class::SimdFloatReduceAdd             0      0.00%     63.15% # Class of executed instruction
system.cpu.op_class::SimdFloatReduceCmp             0      0.00%     63.15% # Class of executed instruction
system.cpu.op_class::SimdAes                        0      0.00%     63.15% # Class of executed instruction
system.cpu.op_class::SimdAesMix                     0      0.00%     63.15% # Class of executed instruction
system.cpu.op_class::SimdSha1Hash                   0      0.00%     63.15% # Class of executed instruction
system.cpu.op_class::SimdSha1Hash2                  0      0.00%     63.15% # Class of executed instruction
system.cpu.op_class::SimdSha256Hash                 0      0.00%     63.15% # Class of executed instruction
system.cpu.op_class::SimdSha256Hash2                0      0.00%     63.15% # Class of executed instruction
system.cpu.op_class::SimdShaSigma2                  0      0.00%     63.15% # Class of executed instruction
system.cpu.op_class::SimdShaSigma3                  0      0.00%     63.15% # Class of executed instruction
system.cpu.op_class::SimdPredAlu                    0      0.00%     63.15% # Class of executed instruction
system.cpu.op_class::MemRead                  1222352      2.99%     66.15% # Class of executed instruction
system.cpu.op_class::MemWrite                  415950      1.02%     67.17% # Class of executed instruction
system.cpu.op_class::FloatMemRead            10532050     25.79%     92.96% # Class of executed instruction
system.cpu.op_class::FloatMemWrite            2876976      7.04%    100.00% # Class of executed instruction
system.cpu.op_class::IprAccess                      0      0.00%    100.00% # Class of executed instruction
system.cpu.op_class::InstPrefetch                   0      0.00%    100.00% # Class of executed instruction
system.cpu.op_class::total                   40837755                       # Class of executed instruction
system.cpu.workload.numSyscalls                    77                       # Number of system calls
system.l2bus.snoop_filter.hit_multi_requests            0                       # Number of requests hitting in the snoop filter with multiple (>1) holders of the requested data.
system.l2bus.snoop_filter.hit_multi_snoops            0                       # Number of snoops hitting in the snoop filter with multiple (>1) holders of the requested data.
system.l2bus.snoop_filter.hit_single_requests       399658                       # Number of requests hitting in the snoop filter with a single holder of the requested data.
system.l2bus.snoop_filter.hit_single_snoops         5597                       # Number of snoops hitting in the snoop filter with a single holder of the requested data.
system.l2bus.snoop_filter.tot_requests         800596                       # Total number of requests made to the snoop filter.
system.l2bus.snoop_filter.tot_snoops             5597                       # Total number of snoops made to the snoop filter.
system.membus.snoop_filter.hit_multi_requests            0                       # Number of requests hitting in the snoop filter with multiple (>1) holders of the requested data.
system.membus.snoop_filter.hit_multi_snoops            0                       # Number of snoops hitting in the snoop filter with multiple (>1) holders of the requested data.
system.membus.snoop_filter.hit_single_requests       344727                       # Number of requests hitting in the snoop filter with a single holder of the requested data.
system.membus.snoop_filter.hit_single_snoops            0                       # Number of snoops hitting in the snoop filter with a single holder of the requested data.
system.membus.snoop_filter.tot_requests        693563                       # Total number of requests made to the snoop filter.
system.membus.snoop_filter.tot_snoops               0                       # Total number of snoops made to the snoop filter.
system.clk_domain.clock                          1000                       # Clock period in ticks
system.clk_domain.voltage_domain.voltage            1                       # Voltage in Volts
system.cpu.dcache.demand_hits::.cpu.data     14655222                       # number of demand (read+write) hits
system.cpu.dcache.demand_hits::total         14655222                       # number of demand (read+write) hits
system.cpu.dcache.overall_hits::.cpu.data     14655222                       # number of overall hits
system.cpu.dcache.overall_hits::total        14655222                       # number of overall hits
system.cpu.dcache.demand_misses::.cpu.data       392175                       # number of demand (read+write) misses
system.cpu.dcache.demand_misses::total         392175                       # number of demand (read+write) misses
system.cpu.dcache.overall_misses::.cpu.data       392175                       # number of overall misses
system.cpu.dcache.overall_misses::total        392175                       # number of overall misses
system.cpu.dcache.demand_miss_latency::.cpu.data  36614583000                       # number of demand (read+write) miss cycles
system.cpu.dcache.demand_miss_latency::total  36614583000                       # number of demand (read+write) miss cycles
system.cpu.dcache.overall_miss_latency::.cpu.data  36614583000                       # number of overall miss cycles
system.cpu.dcache.overall_miss_latency::total  36614583000                       # number of overall miss cycles
system.cpu.dcache.demand_accesses::.cpu.data     15047397                       # number of demand (read+write) accesses
system.cpu.dcache.demand_accesses::total     15047397                       # number of demand (read+write) accesses
system.cpu.dcache.overall_accesses::.cpu.data     15047397                       # number of overall (read+write) accesses
system.cpu.dcache.overall_accesses::total     15047397                       # number of overall (read+write) accesses
system.cpu.dcache.demand_miss_rate::.cpu.data     0.026063                       # miss rate for demand accesses
system.cpu.dcache.demand_miss_rate::total     0.026063                       # miss rate for demand accesses
system.cpu.dcache.overall_miss_rate::.cpu.data     0.026063                       # miss rate for overall accesses
system.cpu.dcache.overall_miss_rate::total     0.026063                       # miss rate for overall accesses
system.cpu.dcache.demand_avg_miss_latency::.cpu.data 93362.868617                       # average overall miss latency
system.cpu.dcache.demand_avg_miss_latency::total 93362.868617                       # average overall miss latency
system.cpu.dcache.overall_avg_miss_latency::.cpu.data 93362.868617                       # average overall miss latency
system.cpu.dcache.overall_avg_miss_latency::total 93362.868617                       # average overall miss latency
system.cpu.dcache.blocked_cycles::no_mshrs            0                       # number of cycles access was blocked
system.cpu.dcache.blocked_cycles::no_targets            0                       # number of cycles access was blocked
system.cpu.dcache.blocked::no_mshrs                 0                       # number of cycles access was blocked
system.cpu.dcache.blocked::no_targets               0                       # number of cycles access was blocked
system.cpu.dcache.avg_blocked_cycles::no_mshrs          nan                       # average number of cycles each access was blocked
system.cpu.dcache.avg_blocked_cycles::no_targets          nan                       # average number of cycles each access was blocked
system.cpu.dcache.writebacks::.writebacks       214638                       # number of writebacks
system.cpu.dcache.writebacks::total            214638                       # number of writebacks
system.cpu.dcache.demand_mshr_misses::.cpu.data       392175                       # number of demand (read+write) MSHR misses
system.cpu.dcache.demand_mshr_misses::total       392175                       # number of demand (read+write) MSHR misses
system.cpu.dcache.overall_mshr_misses::.cpu.data       392175                       # number of overall MSHR misses
system.cpu.dcache.overall_mshr_misses::total       392175                       # number of overall MSHR misses
system.cpu.dcache.demand_mshr_miss_latency::.cpu.data  35830233000                       # number of demand (read+write) MSHR miss cycles
system.cpu.dcache.demand_mshr_miss_latency::total  35830233000                       # number of demand (read+write) MSHR miss cycles
system.cpu.dcache.overall_mshr_miss_latency::.cpu.data  35830233000                       # number of overall MSHR miss cycles
system.cpu.dcache.overall_mshr_miss_latency::total  35830233000                       # number of overall MSHR miss cycles
system.cpu.dcache.demand_mshr_miss_rate::.cpu.data     0.026063                       # mshr miss rate for demand accesses
system.cpu.dcache.demand_mshr_miss_rate::total     0.026063                       # mshr miss rate for demand accesses
system.cpu.dcache.overall_mshr_miss_rate::.cpu.data     0.026063                       # mshr miss rate for overall accesses
system.cpu.dcache.overall_mshr_miss_rate::total     0.026063                       # mshr miss rate for overall accesses
system.cpu.dcache.demand_avg_mshr_miss_latency::.cpu.data 91362.868617                       # average overall mshr miss latency
system.cpu.dcache.demand_avg_mshr_miss_latency::total 91362.868617                       # average overall mshr miss latency
system.cpu.dcache.overall_avg_mshr_miss_latency::.cpu.data 91362.868617                       # average overall mshr miss latency
system.cpu.dcache.overall_avg_mshr_miss_latency::total 91362.868617                       # average overall mshr miss latency
system.cpu.dcache.replacements                 391151                       # number of replacements
system.cpu.dcache.ReadReq_hits::.cpu.data     11481432                       # number of ReadReq hits
system.cpu.dcache.ReadReq_hits::total        11481432                       # number of ReadReq hits
system.cpu.dcache.ReadReq_misses::.cpu.data       273021                       # number of ReadReq misses
system.cpu.dcache.ReadReq_misses::total        273021                       # number of ReadReq misses
system.cpu.dcache.ReadReq_miss_latency::.cpu.data  24879417000                       # number of ReadReq miss cycles
system.cpu.dcache.ReadReq_miss_latency::total  24879417000                       # number of ReadReq miss cycles
system.cpu.dcache.ReadReq_accesses::.cpu.data     11754453                       # number of ReadReq accesses(hits+misses)
system.cpu.dcache.ReadReq_accesses::total     11754453                       # number of ReadReq accesses(hits+misses)
system.cpu.dcache.ReadReq_miss_rate::.cpu.data     0.023227                       # miss rate for ReadReq accesses
system.cpu.dcache.ReadReq_miss_rate::total     0.023227                       # miss rate for ReadReq accesses
system.cpu.dcache.ReadReq_avg_miss_latency::.cpu.data 91126.385882                       # average ReadReq miss latency
system.cpu.dcache.ReadReq_avg_miss_latency::total 91126.385882                       # average ReadReq miss latency
system.cpu.dcache.ReadReq_mshr_misses::.cpu.data       273021                       # number of ReadReq MSHR misses
system.cpu.dcache.ReadReq_mshr_misses::total       273021                       # number of ReadReq MSHR misses
system.cpu.dcache.ReadReq_mshr_miss_latency::.cpu.data  24333375000                       # number of ReadReq MSHR miss cycles
system.cpu.dcache.ReadReq_mshr_miss_latency::total  24333375000                       # number of ReadReq MSHR miss cycles
system.cpu.dcache.ReadReq_mshr_miss_rate::.cpu.data     0.023227                       # mshr miss rate for ReadReq accesses
system.cpu.dcache.ReadReq_mshr_miss_rate::total     0.023227                       # mshr miss rate for ReadReq accesses
system.cpu.dcache.ReadReq_avg_mshr_miss_latency::.cpu.data 89126.385882                       # average ReadReq mshr miss latency
system.cpu.dcache.ReadReq_avg_mshr_miss_latency::total 89126.385882                       # average ReadReq mshr miss latency
system.cpu.dcache.WriteReq_hits::.cpu.data      3173790                       # number of WriteReq hits
system.cpu.dcache.WriteReq_hits::total        3173790                       # number of WriteReq hits
system.cpu.dcache.WriteReq_misses::.cpu.data       119154                       # number of WriteReq misses
system.cpu.dcache.WriteReq_misses::total       119154                       # number of WriteReq misses
system.cpu.dcache.WriteReq_miss_latency::.cpu.data  11735166000                       # number of WriteReq miss cycles
system.cpu.dcache.WriteReq_miss_latency::total  11735166000                       # number of WriteReq miss cycles
system.cpu.dcache.WriteReq_accesses::.cpu.data      3292944                       # number of WriteReq accesses(hits+misses)
system.cpu.dcache.WriteReq_accesses::total      3292944                       # number of WriteReq accesses(hits+misses)
system.cpu.dcache.WriteReq_miss_rate::.cpu.data     0.036185                       # miss rate for WriteReq accesses
system.cpu.dcache.WriteReq_miss_rate::total     0.036185                       # miss rate for WriteReq accesses
system.cpu.dcache.WriteReq_avg_miss_latency::.cpu.data 98487.386072                       # average WriteReq miss latency
system.cpu.dcache.WriteReq_avg_miss_latency::total 98487.386072                       # average WriteReq miss latency
system.cpu.dcache.WriteReq_mshr_misses::.cpu.data       119154                       # number of WriteReq MSHR misses
system.cpu.dcache.WriteReq_mshr_misses::total       119154                       # number of WriteReq MSHR misses
system.cpu.dcache.WriteReq_mshr_miss_latency::.cpu.data  11496858000                       # number of WriteReq MSHR miss cycles
system.cpu.dcache.WriteReq_mshr_miss_latency::total  11496858000                       # number of WriteReq MSHR miss cycles
system.cpu.dcache.WriteReq_mshr_miss_rate::.cpu.data     0.036185                       # mshr miss rate for WriteReq accesses
system.cpu.dcache.WriteReq_mshr_miss_rate::total     0.036185                       # mshr miss rate for WriteReq accesses
system.cpu.dcache.WriteReq_avg_mshr_miss_latency::.cpu.data 96487.386072                       # average WriteReq mshr miss latency
system.cpu.dcache.WriteReq_avg_mshr_miss_latency::total 96487.386072                       # average WriteReq mshr miss latency
system.cpu.dcache.power_state.pwrStateResidencyTicks::UNDEFINED 127597307000                       # Cumulative time (in ticks) in various power states
system.cpu.dcache.tags.tagsinuse          1022.197008                       # Cycle average of tags in use
system.cpu.dcache.tags.total_refs            15047397                       # Total number of references to valid blocks.
system.cpu.dcache.tags.sampled_refs            392175                       # Sample count of references to valid blocks.
system.cpu.dcache.tags.avg_refs             38.369088                       # Average number of references to valid blocks.
system.cpu.dcache.tags.warmup_cycle            224000                       # Cycle when the warmup percentage was hit.
system.cpu.dcache.tags.occ_blocks::.cpu.data  1022.197008                       # Average occupied blocks per requestor
system.cpu.dcache.tags.occ_percent::.cpu.data     0.998239                       # Average percentage of cache occupancy
system.cpu.dcache.tags.occ_percent::total     0.998239                       # Average percentage of cache occupancy
system.cpu.dcache.tags.occ_task_id_blocks::1024         1024                       # Occupied blocks per task id
system.cpu.dcache.tags.age_task_id_blocks_1024::0           27                       # Occupied blocks per task id
system.cpu.dcache.tags.age_task_id_blocks_1024::1          101                       # Occupied blocks per task id
system.cpu.dcache.tags.age_task_id_blocks_1024::2          895                       # Occupied blocks per task id
system.cpu.dcache.tags.age_task_id_blocks_1024::3            1                       # Occupied blocks per task id
system.cpu.dcache.tags.occ_task_id_percent::1024            1                       # Percentage of cache occupancy per task id
system.cpu.dcache.tags.tag_accesses          30486969                       # Number of tag accesses
system.cpu.dcache.tags.data_accesses         30486969                       # Number of data accesses
system.cpu.dcache.tags.power_state.pwrStateResidencyTicks::UNDEFINED 127597307000                       # Cumulative time (in ticks) in various power states
system.cpu.dtb.rdAccesses                    11754454                       # TLB accesses on read requests
system.cpu.dtb.wrAccesses                     3292968                       # TLB accesses on write requests
system.cpu.dtb.rdMisses                          5368                       # TLB misses on read requests
system.cpu.dtb.wrMisses                          1839                       # TLB misses on write requests
system.cpu.dtb.walker.power_state.pwrStateResidencyTicks::UNDEFINED 127597307000                       # Cumulative time (in ticks) in various power states
system.cpu.icache.demand_hits::.cpu.inst     30572437                       # number of demand (read+write) hits
system.cpu.icache.demand_hits::total         30572437                       # number of demand (read+write) hits
system.cpu.icache.overall_hits::.cpu.inst     30572437                       # number of overall hits
system.cpu.icache.overall_hits::total        30572437                       # number of overall hits
system.cpu.icache.demand_misses::.cpu.inst         8763                       # number of demand (read+write) misses
system.cpu.icache.demand_misses::total           8763                       # number of demand (read+write) misses
system.cpu.icache.overall_misses::.cpu.inst         8763                       # number of overall misses
system.cpu.icache.overall_misses::total          8763                       # number of overall misses
system.cpu.icache.demand_miss_latency::.cpu.inst    527694000                       # number of demand (read+write) miss cycles
system.cpu.icache.demand_miss_latency::total    527694000                       # number of demand (read+write) miss cycles
system.cpu.icache.overall_miss_latency::.cpu.inst    527694000                       # number of overall miss cycles
system.cpu.icache.overall_miss_latency::total    527694000                       # number of overall miss cycles
system.cpu.icache.demand_accesses::.cpu.inst     30581200                       # number of demand (read+write) accesses
system.cpu.icache.demand_accesses::total     30581200                       # number of demand (read+write) accesses
system.cpu.icache.overall_accesses::.cpu.inst     30581200                       # number of overall (read+write) accesses
system.cpu.icache.overall_accesses::total     30581200                       # number of overall (read+write) accesses
system.cpu.icache.demand_miss_rate::.cpu.inst     0.000287                       # miss rate for demand accesses
system.cpu.icache.demand_miss_rate::total     0.000287                       # miss rate for demand accesses
system.cpu.icache.overall_miss_rate::.cpu.inst     0.000287                       # miss rate for overall accesses
system.cpu.icache.overall_miss_rate::total     0.000287                       # miss rate for overall accesses
system.cpu.icache.demand_avg_miss_latency::.cpu.inst 60218.418350                       # average overall miss latency
system.cpu.icache.demand_avg_miss_latency::total 60218.418350                       # average overall miss latency
system.cpu.icache.overall_avg_miss_latency::.cpu.inst 60218.418350                       # average overall miss latency
system.cpu.icache.overall_avg_miss_latency::total 60218.418350                       # average overall miss latency
system.cpu.icache.blocked_cycles::no_mshrs            0                       # number of cycles access was blocked
system.cpu.icache.blocked_cycles::no_targets            0                       # number of cycles access was blocked
system.cpu.icache.blocked::no_mshrs                 0                       # number of cycles access was blocked
system.cpu.icache.blocked::no_targets               0                       # number of cycles access was blocked
system.cpu.icache.avg_blocked_cycles::no_mshrs          nan                       # average number of cycles each access was blocked
system.cpu.icache.avg_blocked_cycles::no_targets          nan                       # average number of cycles each access was blocked
system.cpu.icache.demand_mshr_misses::.cpu.inst         8763                       # number of demand (read+write) MSHR misses
system.cpu.icache.demand_mshr_misses::total         8763                       # number of demand (read+write) MSHR misses
system.cpu.icache.overall_mshr_misses::.cpu.inst         8763                       # number of overall MSHR misses
system.cpu.icache.overall_mshr_misses::total         8763                       # number of overall MSHR misses
system.cpu.icache.demand_mshr_miss_latency::.cpu.inst    510168000                       # number of demand (read+write) MSHR miss cycles
system.cpu.icache.demand_mshr_miss_latency::total    510168000                       # number of demand (read+write) MSHR miss cycles
system.cpu.icache.overall_mshr_miss_latency::.cpu.inst    510168000                       # number of overall MSHR miss cycles
system.cpu.icache.overall_mshr_miss_latency::total    510168000                       # number of overall MSHR miss cycles
system.cpu.icache.demand_mshr_miss_rate::.cpu.inst     0.000287                       # mshr miss rate for demand accesses
system.cpu.icache.demand_mshr_miss_rate::total     0.000287                       # mshr miss rate for demand accesses
system.cpu.icache.overall_mshr_miss_rate::.cpu.inst     0.000287                       # mshr miss rate for overall accesses
system.cpu.icache.overall_mshr_miss_rate::total     0.000287                       # mshr miss rate for overall accesses
system.cpu.icache.demand_avg_mshr_miss_latency::.cpu.inst 58218.418350                       # average overall mshr miss latency
system.cpu.icache.demand_avg_mshr_miss_latency::total 58218.418350                       # average overall mshr miss latency
system.cpu.icache.overall_avg_mshr_miss_latency::.cpu.inst 58218.418350                       # average overall mshr miss latency
system.cpu.icache.overall_avg_mshr_miss_latency::total 58218.418350                       # average overall mshr miss latency
system.cpu.icache.replacements                   8507                       # number of replacements
system.cpu.icache.ReadReq_hits::.cpu.inst     30572437                       # number of ReadReq hits
system.cpu.icache.ReadReq_hits::total        30572437                       # number of ReadReq hits
system.cpu.icache.ReadReq_misses::.cpu.inst         8763                       # number of ReadReq misses
system.cpu.icache.ReadReq_misses::total          8763                       # number of ReadReq misses
system.cpu.icache.ReadReq_miss_latency::.cpu.inst    527694000                       # number of ReadReq miss cycles
system.cpu.icache.ReadReq_miss_latency::total    527694000                       # number of ReadReq miss cycles
system.cpu.icache.ReadReq_accesses::.cpu.inst     30581200                       # number of ReadReq accesses(hits+misses)
system.cpu.icache.ReadReq_accesses::total     30581200                       # number of ReadReq accesses(hits+misses)
system.cpu.icache.ReadReq_miss_rate::.cpu.inst     0.000287                       # miss rate for ReadReq accesses
system.cpu.icache.ReadReq_miss_rate::total     0.000287                       # miss rate for ReadReq accesses
system.cpu.icache.ReadReq_avg_miss_latency::.cpu.inst 60218.418350                       # average ReadReq miss latency
system.cpu.icache.ReadReq_avg_miss_latency::total 60218.418350                       # average ReadReq miss latency
system.cpu.icache.ReadReq_mshr_misses::.cpu.inst         8763                       # number of ReadReq MSHR misses
system.cpu.icache.ReadReq_mshr_misses::total         8763                       # number of ReadReq MSHR misses
system.cpu.icache.ReadReq_mshr_miss_latency::.cpu.inst    510168000                       # number of ReadReq MSHR miss cycles
system.cpu.icache.ReadReq_mshr_miss_latency::total    510168000                       # number of ReadReq MSHR miss cycles
system.cpu.icache.ReadReq_mshr_miss_rate::.cpu.inst     0.000287                       # mshr miss rate for ReadReq accesses
system.cpu.icache.ReadReq_mshr_miss_rate::total     0.000287                       # mshr miss rate for ReadReq accesses
system.cpu.icache.ReadReq_avg_mshr_miss_latency::.cpu.inst 58218.418350                       # average ReadReq mshr miss latency
system.cpu.icache.ReadReq_avg_mshr_miss_latency::total 58218.418350                       # average ReadReq mshr miss latency
system.cpu.icache.power_state.pwrStateResidencyTicks::UNDEFINED 127597307000                       # Cumulative time (in ticks) in various power states
system.cpu.icache.tags.tagsinuse           255.897569                       # Cycle average of tags in use
system.cpu.icache.tags.total_refs            30581200                       # Total number of references to valid blocks.
system.cpu.icache.tags.sampled_refs              8763                       # Sample count of references to valid blocks.
system.cpu.icache.tags.avg_refs           3489.809426                       # Average number of references to valid blocks.
system.cpu.icache.tags.warmup_cycle            107000                       # Cycle when the warmup percentage was hit.
system.cpu.icache.tags.occ_blocks::.cpu.inst   255.897569                       # Average occupied blocks per requestor
system.cpu.icache.tags.occ_percent::.cpu.inst     0.999600                       # Average percentage of cache occupancy
system.cpu.icache.tags.occ_percent::total     0.999600                       # Average percentage of cache occupancy
system.cpu.icache.tags.occ_task_id_blocks::1024          256                       # Occupied blocks per task id
system.cpu.icache.tags.age_task_id_blocks_1024::0           33                       # Occupied blocks per task id
system.cpu.icache.tags.age_task_id_blocks_1024::1          109                       # Occupied blocks per task id
system.cpu.icache.tags.age_task_id_blocks_1024::2          113                       # Occupied blocks per task id
system.cpu.icache.tags.age_task_id_blocks_1024::4            1                       # Occupied blocks per task id
system.cpu.icache.tags.occ_task_id_percent::1024            1                       # Percentage of cache occupancy per task id
system.cpu.icache.tags.tag_accesses          61171163                       # Number of tag accesses
system.cpu.icache.tags.data_accesses         61171163                       # Number of data accesses
system.cpu.icache.tags.power_state.pwrStateResidencyTicks::UNDEFINED 127597307000                       # Cumulative time (in ticks) in various power states
system.cpu.interrupts.clk_domain.clock          16000                       # Clock period in ticks
system.cpu.itb.rdAccesses                           0                       # TLB accesses on read requests
system.cpu.itb.wrAccesses                    30581200                       # TLB accesses on write requests
system.cpu.itb.rdMisses                             0                       # TLB misses on read requests
system.cpu.itb.wrMisses                           132                       # TLB misses on write requests
system.cpu.itb.walker.power_state.pwrStateResidencyTicks::UNDEFINED 127597307000                       # Cumulative time (in ticks) in various power states
system.cpu.power_state.pwrStateResidencyTicks::ON 127597307000                       # Cumulative time (in ticks) in various power states
system.cpu.thread_0.numInsts                        0                       # Number of Instructions committed
system.cpu.thread_0.numOps                          0                       # Number of Ops committed
system.cpu.thread_0.numMemRefs                      0                       # Number of Memory References
system.l2bus.trans_dist::ReadResp              281784                       # Transaction distribution
system.l2bus.trans_dist::WritebackDirty        386703                       # Transaction distribution
system.l2bus.trans_dist::CleanEvict            359750                       # Transaction distribution
system.l2bus.trans_dist::ReadExReq             119154                       # Transaction distribution
system.l2bus.trans_dist::ReadExResp            119154                       # Transaction distribution
system.l2bus.trans_dist::ReadSharedReq         281784                       # Transaction distribution
system.l2bus.pkt_count_system.cpu.icache.mem_side_port::system.l2cache.cpu_side_port        26033                       # Packet count per connected requestor and responder (bytes)
system.l2bus.pkt_count_system.cpu.dcache.mem_side_port::system.l2cache.cpu_side_port      1175501                       # Packet count per connected requestor and responder (bytes)
system.l2bus.pkt_count::total                 1201534                       # Packet count per connected requestor and responder (bytes)
system.l2bus.pkt_size_system.cpu.icache.mem_side_port::system.l2cache.cpu_side_port       560832                       # Cumulative packet size per connected requestor and responder (bytes)
system.l2bus.pkt_size_system.cpu.dcache.mem_side_port::system.l2cache.cpu_side_port     38836032                       # Cumulative packet size per connected requestor and responder (bytes)
system.l2bus.pkt_size::total                 39396864                       # Cumulative packet size per connected requestor and responder (bytes)
system.l2bus.snoops                            346795                       # Total snoops (count)
system.l2bus.snoopTraffic                    11012160                       # Total snoop traffic (bytes)
system.l2bus.snoop_fanout::samples             747733                       # Request fanout histogram
system.l2bus.snoop_fanout::mean              0.007485                       # Request fanout histogram
system.l2bus.snoop_fanout::stdev             0.086193                       # Request fanout histogram
system.l2bus.snoop_fanout::underflows               0      0.00%      0.00% # Request fanout histogram
system.l2bus.snoop_fanout::0                   742136     99.25%     99.25% # Request fanout histogram
system.l2bus.snoop_fanout::1                     5597      0.75%    100.00% # Request fanout histogram
system.l2bus.snoop_fanout::2                        0      0.00%    100.00% # Request fanout histogram
system.l2bus.snoop_fanout::overflows                0      0.00%    100.00% # Request fanout histogram
system.l2bus.snoop_fanout::min_value                0                       # Request fanout histogram
system.l2bus.snoop_fanout::max_value                1                       # Request fanout histogram
system.l2bus.snoop_fanout::total               747733                       # Request fanout histogram
system.l2bus.power_state.pwrStateResidencyTicks::UNDEFINED 127597307000                       # Cumulative time (in ticks) in various power states
system.l2bus.reqLayer0.occupancy           1229872000                       # Layer occupancy (ticks)
system.l2bus.reqLayer0.utilization                1.0                       # Layer utilization (%)
system.l2bus.respLayer0.occupancy            26289000                       # Layer occupancy (ticks)
system.l2bus.respLayer0.utilization               0.0                       # Layer utilization (%)
system.l2bus.respLayer1.occupancy          1176525000                       # Layer occupancy (ticks)
system.l2bus.respLayer1.utilization               0.9                       # Layer utilization (%)
system.l2cache.demand_hits::.cpu.inst            4971                       # number of demand (read+write) hits
system.l2cache.demand_hits::.cpu.data           47131                       # number of demand (read+write) hits
system.l2cache.demand_hits::total               52102                       # number of demand (read+write) hits
system.l2cache.overall_hits::.cpu.inst           4971                       # number of overall hits
system.l2cache.overall_hits::.cpu.data          47131                       # number of overall hits
system.l2cache.overall_hits::total              52102                       # number of overall hits
system.l2cache.demand_misses::.cpu.inst          3792                       # number of demand (read+write) misses
system.l2cache.demand_misses::.cpu.data        345044                       # number of demand (read+write) misses
system.l2cache.demand_misses::total            348836                       # number of demand (read+write) misses
system.l2cache.overall_misses::.cpu.inst         3792                       # number of overall misses
system.l2cache.overall_misses::.cpu.data       345044                       # number of overall misses
system.l2cache.overall_misses::total           348836                       # number of overall misses
system.l2cache.demand_miss_latency::.cpu.inst    379457000                       # number of demand (read+write) miss cycles
system.l2cache.demand_miss_latency::.cpu.data  33663073000                       # number of demand (read+write) miss cycles
system.l2cache.demand_miss_latency::total  34042530000                       # number of demand (read+write) miss cycles
system.l2cache.overall_miss_latency::.cpu.inst    379457000                       # number of overall miss cycles
system.l2cache.overall_miss_latency::.cpu.data  33663073000                       # number of overall miss cycles
system.l2cache.overall_miss_latency::total  34042530000                       # number of overall miss cycles
system.l2cache.demand_accesses::.cpu.inst         8763                       # number of demand (read+write) accesses
system.l2cache.demand_accesses::.cpu.data       392175                       # number of demand (read+write) accesses
system.l2cache.demand_accesses::total          400938                       # number of demand (read+write) accesses
system.l2cache.overall_accesses::.cpu.inst         8763                       # number of overall (read+write) accesses
system.l2cache.overall_accesses::.cpu.data       392175                       # number of overall (read+write) accesses
system.l2cache.overall_accesses::total         400938                       # number of overall (read+write) accesses
system.l2cache.demand_miss_rate::.cpu.inst     0.432729                       # miss rate for demand accesses
system.l2cache.demand_miss_rate::.cpu.data     0.879822                       # miss rate for demand accesses
system.l2cache.demand_miss_rate::total       0.870050                       # miss rate for demand accesses
system.l2cache.overall_miss_rate::.cpu.inst     0.432729                       # miss rate for overall accesses
system.l2cache.overall_miss_rate::.cpu.data     0.879822                       # miss rate for overall accesses
system.l2cache.overall_miss_rate::total      0.870050                       # miss rate for overall accesses
system.l2cache.demand_avg_miss_latency::.cpu.inst 100067.774262                       # average overall miss latency
system.l2cache.demand_avg_miss_latency::.cpu.data 97561.681988                       # average overall miss latency
system.l2cache.demand_avg_miss_latency::total 97588.924308                       # average overall miss latency
system.l2cache.overall_avg_miss_latency::.cpu.inst 100067.774262                       # average overall miss latency
system.l2cache.overall_avg_miss_latency::.cpu.data 97561.681988                       # average overall miss latency
system.l2cache.overall_avg_miss_latency::total 97588.924308                       # average overall miss latency
system.l2cache.blocked_cycles::no_mshrs             0                       # number of cycles access was blocked
system.l2cache.blocked_cycles::no_targets            0                       # number of cycles access was blocked
system.l2cache.blocked::no_mshrs                    0                       # number of cycles access was blocked
system.l2cache.blocked::no_targets                  0                       # number of cycles access was blocked
system.l2cache.avg_blocked_cycles::no_mshrs          nan                       # average number of cycles each access was blocked
system.l2cache.avg_blocked_cycles::no_targets          nan                       # average number of cycles each access was blocked
system.l2cache.writebacks::.writebacks         172065                       # number of writebacks
system.l2cache.writebacks::total               172065                       # number of writebacks
system.l2cache.demand_mshr_misses::.cpu.inst         3792                       # number of demand (read+write) MSHR misses
system.l2cache.demand_mshr_misses::.cpu.data       345044                       # number of demand (read+write) MSHR misses
system.l2cache.demand_mshr_misses::total       348836                       # number of demand (read+write) MSHR misses
system.l2cache.overall_mshr_misses::.cpu.inst         3792                       # number of overall MSHR misses
system.l2cache.overall_mshr_misses::.cpu.data       345044                       # number of overall MSHR misses
system.l2cache.overall_mshr_misses::total       348836                       # number of overall MSHR misses
system.l2cache.demand_mshr_miss_latency::.cpu.inst    303617000                       # number of demand (read+write) MSHR miss cycles
system.l2cache.demand_mshr_miss_latency::.cpu.data  26762193000                       # number of demand (read+write) MSHR miss cycles
system.l2cache.demand_mshr_miss_latency::total  27065810000                       # number of demand (read+write) MSHR miss cycles
system.l2cache.overall_mshr_miss_latency::.cpu.inst    303617000                       # number of overall MSHR miss cycles
system.l2cache.overall_mshr_miss_latency::.cpu.data  26762193000                       # number of overall MSHR miss cycles
system.l2cache.overall_mshr_miss_latency::total  27065810000                       # number of overall MSHR miss cycles
system.l2cache.demand_mshr_miss_rate::.cpu.inst     0.432729                       # mshr miss rate for demand accesses
system.l2cache.demand_mshr_miss_rate::.cpu.data     0.879822                       # mshr miss rate for demand accesses
system.l2cache.demand_mshr_miss_rate::total     0.870050                       # mshr miss rate for demand accesses
system.l2cache.overall_mshr_miss_rate::.cpu.inst     0.432729                       # mshr miss rate for overall accesses
system.l2cache.overall_mshr_miss_rate::.cpu.data     0.879822                       # mshr miss rate for overall accesses
system.l2cache.overall_mshr_miss_rate::total     0.870050                       # mshr miss rate for overall accesses
system.l2cache.demand_avg_mshr_miss_latency::.cpu.inst 80067.774262                       # average overall mshr miss latency
system.l2cache.demand_avg_mshr_miss_latency::.cpu.data 77561.681988                       # average overall mshr miss latency
system.l2cache.demand_avg_mshr_miss_latency::total 77588.924308                       # average overall mshr miss latency
system.l2cache.overall_avg_mshr_miss_latency::.cpu.inst 80067.774262                       # average overall mshr miss latency
system.l2cache.overall_avg_mshr_miss_latency::.cpu.data 77561.681988                       # average overall mshr miss latency
system.l2cache.overall_avg_mshr_miss_latency::total 77588.924308                       # average overall mshr miss latency
system.l2cache.replacements                    343351                       # number of replacements
system.l2cache.WritebackDirty_hits::.writebacks       214620                       # number of WritebackDirty hits
system.l2cache.WritebackDirty_hits::total       214620                       # number of WritebackDirty hits
system.l2cache.WritebackDirty_misses::.writebacks           18                       # number of WritebackDirty misses
system.l2cache.WritebackDirty_misses::total           18                       # number of WritebackDirty misses
system.l2cache.WritebackDirty_accesses::.writebacks       214638                       # number of WritebackDirty accesses(hits+misses)
system.l2cache.WritebackDirty_accesses::total       214638                       # number of WritebackDirty accesses(hits+misses)
system.l2cache.WritebackDirty_miss_rate::.writebacks     0.000084                       # miss rate for WritebackDirty accesses
system.l2cache.WritebackDirty_miss_rate::total     0.000084                       # miss rate for WritebackDirty accesses
system.l2cache.WritebackDirty_mshr_misses::.writebacks           18                       # number of WritebackDirty MSHR misses
system.l2cache.WritebackDirty_mshr_misses::total           18                       # number of WritebackDirty MSHR misses
system.l2cache.WritebackDirty_mshr_miss_rate::.writebacks     0.000084                       # mshr miss rate for WritebackDirty accesses
system.l2cache.WritebackDirty_mshr_miss_rate::total     0.000084                       # mshr miss rate for WritebackDirty accesses
system.l2cache.CleanEvict_mshr_misses::.writebacks         3511                       # number of CleanEvict MSHR misses
system.l2cache.CleanEvict_mshr_misses::total         3511                       # number of CleanEvict MSHR misses
system.l2cache.CleanEvict_mshr_miss_rate::.writebacks          inf                       # mshr miss rate for CleanEvict accesses
system.l2cache.CleanEvict_mshr_miss_rate::total          inf                       # mshr miss rate for CleanEvict accesses
system.l2cache.ReadExReq_hits::.cpu.data         7251                       # number of ReadExReq hits
system.l2cache.ReadExReq_hits::total             7251                       # number of ReadExReq hits
system.l2cache.ReadExReq_misses::.cpu.data       111903                       # number of ReadExReq misses
system.l2cache.ReadExReq_misses::total         111903                       # number of ReadExReq misses
system.l2cache.ReadExReq_miss_latency::.cpu.data  10987106000                       # number of ReadExReq miss cycles
system.l2cache.ReadExReq_miss_latency::total  10987106000                       # number of ReadExReq miss cycles
system.l2cache.ReadExReq_accesses::.cpu.data       119154                       # number of ReadExReq accesses(hits+misses)
system.l2cache.ReadExReq_accesses::total       119154                       # number of ReadExReq accesses(hits+misses)
system.l2cache.ReadExReq_miss_rate::.cpu.data     0.939146                       # miss rate for ReadExReq accesses
system.l2cache.ReadExReq_miss_rate::total     0.939146                       # miss rate for ReadExReq accesses
system.l2cache.ReadExReq_avg_miss_latency::.cpu.data 98184.195241                       # average ReadExReq miss latency
system.l2cache.ReadExReq_avg_miss_latency::total 98184.195241                       # average ReadExReq miss latency
system.l2cache.ReadExReq_mshr_misses::.cpu.data       111903                       # number of ReadExReq MSHR misses
system.l2cache.ReadExReq_mshr_misses::total       111903                       # number of ReadExReq MSHR misses
system.l2cache.ReadExReq_mshr_miss_latency::.cpu.data   8749046000                       # number of ReadExReq MSHR miss cycles
system.l2cache.ReadExReq_mshr_miss_latency::total   8749046000                       # number of ReadExReq MSHR miss cycles
system.l2cache.ReadExReq_mshr_miss_rate::.cpu.data     0.939146                       # mshr miss rate for ReadExReq accesses
system.l2cache.ReadExReq_mshr_miss_rate::total     0.939146                       # mshr miss rate for ReadExReq accesses
system.l2cache.ReadExReq_avg_mshr_miss_latency::.cpu.data 78184.195241                       # average ReadExReq mshr miss latency
system.l2cache.ReadExReq_avg_mshr_miss_latency::total 78184.195241                       # average ReadExReq mshr miss latency
system.l2cache.ReadSharedReq_hits::.cpu.inst         4971                       # number of ReadSharedReq hits
system.l2cache.ReadSharedReq_hits::.cpu.data        39880                       # number of ReadSharedReq hits
system.l2cache.ReadSharedReq_hits::total        44851                       # number of ReadSharedReq hits
system.l2cache.ReadSharedReq_misses::.cpu.inst         3792                       # number of ReadSharedReq misses
system.l2cache.ReadSharedReq_misses::.cpu.data       233141                       # number of ReadSharedReq misses
system.l2cache.ReadSharedReq_misses::total       236933                       # number of ReadSharedReq misses
system.l2cache.ReadSharedReq_miss_latency::.cpu.inst    379457000                       # number of ReadSharedReq miss cycles
system.l2cache.ReadSharedReq_miss_latency::.cpu.data  22675967000                       # number of ReadSharedReq miss cycles
system.l2cache.ReadSharedReq_miss_latency::total  23055424000                       # number of ReadSharedReq miss cycles
system.l2cache.ReadSharedReq_accesses::.cpu.inst         8763                       # number of ReadSharedReq accesses(hits+misses)
system.l2cache.ReadSharedReq_accesses::.cpu.data       273021                       # number of ReadSharedReq accesses(hits+misses)
system.l2cache.ReadSharedReq_accesses::total       281784                       # number of ReadSharedReq accesses(hits+misses)
system.l2cache.ReadSharedReq_miss_rate::.cpu.inst     0.432729                       # miss rate for ReadSharedReq accesses
system.l2cache.ReadSharedReq_miss_rate::.cpu.data     0.853931                       # miss rate for ReadSharedReq accesses
system.l2cache.ReadSharedReq_miss_rate::total     0.840832                       # miss rate for ReadSharedReq accesses
system.l2cache.ReadSharedReq_avg_miss_latency::.cpu.inst 100067.774262                       # average ReadSharedReq miss latency
system.l2cache.ReadSharedReq_avg_miss_latency::.cpu.data 97262.888123                       # average ReadSharedReq miss latency
system.l2cache.ReadSharedReq_avg_miss_latency::total 97307.778992                       # average ReadSharedReq miss latency
system.l2cache.ReadSharedReq_mshr_misses::.cpu.inst         3792                       # number of ReadSharedReq MSHR misses
system.l2cache.ReadSharedReq_mshr_misses::.cpu.data       233141                       # number of ReadSharedReq MSHR misses
system.l2cache.ReadSharedReq_mshr_misses::total       236933                       # number of ReadSharedReq MSHR misses
system.l2cache.ReadSharedReq_mshr_miss_latency::.cpu.inst    303617000                       # number of ReadSharedReq MSHR miss cycles
system.l2cache.ReadSharedReq_mshr_miss_latency::.cpu.data  18013147000                       # number of ReadSharedReq MSHR miss cycles
system.l2cache.ReadSharedReq_mshr_miss_latency::total  18316764000                       # number of ReadSharedReq MSHR miss cycles
system.l2cache.ReadSharedReq_mshr_miss_rate::.cpu.inst     0.432729                       # mshr miss rate for ReadSharedReq accesses
system.l2cache.ReadSharedReq_mshr_miss_rate::.cpu.data     0.853931                       # mshr miss rate for ReadSharedReq accesses
system.l2cache.ReadSharedReq_mshr_miss_rate::total     0.840832                       # mshr miss rate for ReadSharedReq accesses
system.l2cache.ReadSharedReq_avg_mshr_miss_latency::.cpu.inst 80067.774262                       # average ReadSharedReq mshr miss latency
system.l2cache.ReadSharedReq_avg_mshr_miss_latency::.cpu.data 77262.888123                       # average ReadSharedReq mshr miss latency
system.l2cache.ReadSharedReq_avg_mshr_miss_latency::total 77307.778992                       # average ReadSharedReq mshr miss latency
system.l2cache.power_state.pwrStateResidencyTicks::UNDEFINED 127597307000                       # Cumulative time (in ticks) in various power states
system.l2cache.replacement_policy.totalBypasses         3462                       # Total number of cache bypasses
system.l2cache.replacement_policy.effectiveBypasses          229                       # Bypasses that correctly skipped non-reused blocks
system.l2cache.replacement_policy.ineffectiveBypasses          123                       # Bypasses that incorrectly skipped requested blocks
system.l2cache.replacement_policy.virtualEffectiveBypasses         1792                       # Virtual bypasses correctly predicting non-reused blocks
system.l2cache.replacement_policy.virtualIneffectiveBypasses        13582                       # Virtual bypasses incorrectly predicting requested blocks
system.l2cache.tags.tagsinuse             4083.334436                       # Cycle average of tags in use
system.l2cache.tags.total_refs                 793623                       # Total number of references to valid blocks.
system.l2cache.tags.sampled_refs               347447                       # Sample count of references to valid blocks.
system.l2cache.tags.avg_refs                 2.284156                       # Average number of references to valid blocks.
system.l2cache.tags.warmup_cycle                86000                       # Cycle when the warmup percentage was hit.
system.l2cache.tags.occ_blocks::.writebacks    18.942179                       # Average occupied blocks per requestor
system.l2cache.tags.occ_blocks::.cpu.inst    25.985516                       # Average occupied blocks per requestor
system.l2cache.tags.occ_blocks::.cpu.data  4038.406741                       # Average occupied blocks per requestor
system.l2cache.tags.occ_percent::.writebacks     0.004625                       # Average percentage of cache occupancy
system.l2cache.tags.occ_percent::.cpu.inst     0.006344                       # Average percentage of cache occupancy
system.l2cache.tags.occ_percent::.cpu.data     0.985939                       # Average percentage of cache occupancy
system.l2cache.tags.occ_percent::total       0.996908                       # Average percentage of cache occupancy
system.l2cache.tags.occ_task_id_blocks::1024         4096                       # Occupied blocks per task id
system.l2cache.tags.age_task_id_blocks_1024::0           58                       # Occupied blocks per task id
system.l2cache.tags.age_task_id_blocks_1024::1          127                       # Occupied blocks per task id
system.l2cache.tags.age_task_id_blocks_1024::2         2291                       # Occupied blocks per task id
system.l2cache.tags.age_task_id_blocks_1024::3         1620                       # Occupied blocks per task id
system.l2cache.tags.occ_task_id_percent::1024            1                       # Percentage of cache occupancy per task id
system.l2cache.tags.tag_accesses              6752215                       # Number of tag accesses
system.l2cache.tags.data_accesses             6752215                       # Number of data accesses
system.l2cache.tags.power_state.pwrStateResidencyTicks::UNDEFINED 127597307000                       # Cumulative time (in ticks) in various power states
system.mem_ctrl.avgPriority_.writebacks::samples    172083.00                       # Average QoS priority value for accepted requests
system.mem_ctrl.avgPriority_.cpu.inst::samples      3792.00                       # Average QoS priority value for accepted requests
system.mem_ctrl.avgPriority_.cpu.data::samples    344861.00                       # Average QoS priority value for accepted requests
system.mem_ctrl.priorityMinLatency       0.000000018750                       # per QoS priority minimum request to response latency (s)
system.mem_ctrl.priorityMaxLatency       0.005480394500                       # per QoS priority maximum request to response latency (s)
system.mem_ctrl.numReadWriteTurnArounds          9711                       # Number of turnarounds from READ to WRITE
system.mem_ctrl.numWriteReadTurnArounds          9711                       # Number of turnarounds from WRITE to READ
system.mem_ctrl.numStayReadState               899188                       # Number of times bus staying in READ state
system.mem_ctrl.numStayWriteState              162567                       # Number of times bus staying in WRITE state
system.mem_ctrl.readReqs                       348836                       # Number of read requests accepted
system.mem_ctrl.writeReqs                      172083                       # Number of write requests accepted
system.mem_ctrl.readBursts                     348836                       # Number of controller read bursts, including those serviced by the write queue
system.mem_ctrl.writeBursts                    172083                       # Number of controller write bursts, including those merged in the write queue
system.mem_ctrl.servicedByWrQ                     183                       # Number of controller read bursts serviced by the write queue
system.mem_ctrl.mergedWrBursts                      0                       # Number of controller write bursts merged with an existing one
system.mem_ctrl.neitherReadNorWriteReqs             0                       # Number of requests that are neither read nor write
system.mem_ctrl.avgRdQLen                        1.00                       # Average read queue length when enqueuing
system.mem_ctrl.avgWrQLen                       24.48                       # Average write queue length when enqueuing
system.mem_ctrl.numRdRetry                          0                       # Number of times read queue was full causing retry
system.mem_ctrl.numWrRetry                          0                       # Number of times write queue was full causing retry
system.mem_ctrl.readPktSize::0                      0                       # Read request sizes (log2)
system.mem_ctrl.readPktSize::1                      0                       # Read request sizes (log2)
system.mem_ctrl.readPktSize::2                      0                       # Read request sizes (log2)
system.mem_ctrl.readPktSize::3                      0                       # Read request sizes (log2)
system.mem_ctrl.readPktSize::4                      0                       # Read request sizes (log2)
system.mem_ctrl.readPktSize::5                      0                       # Read request sizes (log2)
system.mem_ctrl.readPktSize::6                 348836                       # Read request sizes (log2)
system.mem_ctrl.writePktSize::0                     0                       # Write request sizes (log2)
system.mem_ctrl.writePktSize::1                     0                       # Write request sizes (log2)
system.mem_ctrl.writePktSize::2                     0                       # Write request sizes (log2)
system.mem_ctrl.writePktSize::3                     0                       # Write request sizes (log2)
system.mem_ctrl.writePktSize::4                     0                       # Write request sizes (log2)
system.mem_ctrl.writePktSize::5                     0                       # Write request sizes (log2)
system.mem_ctrl.writePktSize::6                172083                       # Write request sizes (log2)
system.mem_ctrl.rdQLenPdf::0                   348651                       # What read queue length does an incoming req see
system.mem_ctrl.rdQLenPdf::1                        2                       # What read queue length does an incoming req see
system.mem_ctrl.rdQLenPdf::2                        0                       # What read queue length does an incoming req see
system.mem_ctrl.rdQLenPdf::3                        0                       # What read queue length does an incoming req see
system.mem_ctrl.rdQLenPdf::4                        0                       # What read queue length does an incoming req see
system.mem_ctrl.rdQLenPdf::5                        0                       # What read queue length does an incoming req see
system.mem_ctrl.rdQLenPdf::6                        0                       # What read queue length does an incoming req see
system.mem_ctrl.rdQLenPdf::7                        0                       # What read queue length does an incoming req see
system.mem_ctrl.rdQLenPdf::8                        0                       # What read queue length does an incoming req see
system.mem_ctrl.rdQLenPdf::9                        0                       # What read queue length does an incoming req see
system.mem_ctrl.rdQLenPdf::10                       0                       # What read queue length does an incoming req see
system.mem_ctrl.rdQLenPdf::11                       0                       # What read queue length does an incoming req see
system.mem_ctrl.rdQLenPdf::12                       0                       # What read queue length does an incoming req see
system.mem_ctrl.rdQLenPdf::13                       0                       # What read queue length does an incoming req see
system.mem_ctrl.rdQLenPdf::14                       0                       # What read queue length does an incoming req see
system.mem_ctrl.rdQLenPdf::15                       0                       # What read queue length does an incoming req see
system.mem_ctrl.rdQLenPdf::16                       0                       # What read queue length does an incoming req see
system.mem_ctrl.rdQLenPdf::17                       0                       # What read queue length does an incoming req see
system.mem_ctrl.rdQLenPdf::18                       0                       # What read queue length does an incoming req see
system.mem_ctrl.rdQLenPdf::19                       0                       # What read queue length does an incoming req see
system.mem_ctrl.rdQLenPdf::20                       0                       # What read queue length does an incoming req see
system.mem_ctrl.rdQLenPdf::21                       0                       # What read queue length does an incoming req see
system.mem_ctrl.rdQLenPdf::22                       0                       # What read queue length does an incoming req see
system.mem_ctrl.rdQLenPdf::23                       0                       # What read queue length does an incoming req see
system.mem_ctrl.rdQLenPdf::24                       0                       # What read queue length does an incoming req see
system.mem_ctrl.rdQLenPdf::25                       0                       # What read queue length does an incoming req see
system.mem_ctrl.rdQLenPdf::26                       0                       # What read queue length does an incoming req see
system.mem_ctrl.rdQLenPdf::27                       0                       # What read queue length does an incoming req see
system.mem_ctrl.rdQLenPdf::28                       0                       # What read queue length does an incoming req see
system.mem_ctrl.rdQLenPdf::29                       0                       # What read queue length does an incoming req see
system.mem_ctrl.rdQLenPdf::30                       0                       # What read queue length does an incoming req see
system.mem_ctrl.rdQLenPdf::31                       0                       # What read queue length does an incoming req see
system.mem_ctrl.wrQLenPdf::0                        1                       # What write queue length does an incoming req see
system.mem_ctrl.wrQLenPdf::1                        1                       # What write queue length does an incoming req see
system.mem_ctrl.wrQLenPdf::2                        1                       # What write queue length does an incoming req see
system.mem_ctrl.wrQLenPdf::3                        1                       # What write queue length does an incoming req see
system.mem_ctrl.wrQLenPdf::4                        1                       # What write queue length does an incoming req see
system.mem_ctrl.wrQLenPdf::5                        1                       # What write queue length does an incoming req see
system.mem_ctrl.wrQLenPdf::6                        1                       # What write queue length does an incoming req see
system.mem_ctrl.wrQLenPdf::7                        1                       # What write queue length does an incoming req see
system.mem_ctrl.wrQLenPdf::8                        1                       # What write queue length does an incoming req see
system.mem_ctrl.wrQLenPdf::9                        1                       # What write queue length does an incoming req see
system.mem_ctrl.wrQLenPdf::10                       1                       # What write queue length does an incoming req see
system.mem_ctrl.wrQLenPdf::11                       1                       # What write queue length does an incoming req see
system.mem_ctrl.wrQLenPdf::12                       1                       # What write queue length does an incoming req see
system.mem_ctrl.wrQLenPdf::13                       1                       # What write queue length does an incoming req see
system.mem_ctrl.wrQLenPdf::14                       1                       # What write queue length does an incoming req see
system.mem_ctrl.wrQLenPdf::15                    8250                       # What write queue length does an incoming req see
system.mem_ctrl.wrQLenPdf::16                    8406                       # What write queue length does an incoming req see
system.mem_ctrl.wrQLenPdf::17                    9708                       # What write queue length does an incoming req see
system.mem_ctrl.wrQLenPdf::18                    9714                       # What write queue length does an incoming req see
system.mem_ctrl.wrQLenPdf::19                    9713                       # What write queue length does an incoming req see
system.mem_ctrl.wrQLenPdf::20                    9713                       # What write queue length does an incoming req see
system.mem_ctrl.wrQLenPdf::21                    9730                       # What write queue length does an incoming req see
system.mem_ctrl.wrQLenPdf::22                    9715                       # What write queue length does an incoming req see
system.mem_ctrl.wrQLenPdf::23                    9715                       # What write queue length does an incoming req see
system.mem_ctrl.wrQLenPdf::24                    9712                       # What write queue length does an incoming req see
system.mem_ctrl.wrQLenPdf::25                    9712                       # What write queue length does an incoming req see
system.mem_ctrl.wrQLenPdf::26                    9712                       # What write queue length does an incoming req see
system.mem_ctrl.wrQLenPdf::27                    9712                       # What write queue length does an incoming req see
system.mem_ctrl.wrQLenPdf::28                    9712                       # What write queue length does an incoming req see
system.mem_ctrl.wrQLenPdf::29                    9711                       # What write queue length does an incoming req see
system.mem_ctrl.wrQLenPdf::30                    9711                       # What write queue length does an incoming req see
system.mem_ctrl.wrQLenPdf::31                    9711                       # What write queue length does an incoming req see
system.mem_ctrl.wrQLenPdf::32                    9711                       # What write queue length does an incoming req see
system.mem_ctrl.wrQLenPdf::33                       0                       # What write queue length does an incoming req see
system.mem_ctrl.wrQLenPdf::34                       0                       # What write queue length does an incoming req see
system.mem_ctrl.wrQLenPdf::35                       0                       # What write queue length does an incoming req see
system.mem_ctrl.wrQLenPdf::36                       0                       # What write queue length does an incoming req see
system.mem_ctrl.wrQLenPdf::37                       0                       # What write queue length does an incoming req see
system.mem_ctrl.wrQLenPdf::38                       0                       # What write queue length does an incoming req see
system.mem_ctrl.wrQLenPdf::39                       0                       # What write queue length does an incoming req see
system.mem_ctrl.wrQLenPdf::40                       0                       # What write queue length does an incoming req see
system.mem_ctrl.wrQLenPdf::41                       0                       # What write queue length does an incoming req see
system.mem_ctrl.wrQLenPdf::42                       0                       # What write queue length does an incoming req see
system.mem_ctrl.wrQLenPdf::43                       0                       # What write queue length does an incoming req see
system.mem_ctrl.wrQLenPdf::44                       0                       # What write queue length does an incoming req see
system.mem_ctrl.wrQLenPdf::45                       0                       # What write queue length does an incoming req see
system.mem_ctrl.wrQLenPdf::46                       0                       # What write queue length does an incoming req see
system.mem_ctrl.wrQLenPdf::47                       0                       # What write queue length does an incoming req see
system.mem_ctrl.wrQLenPdf::48                       0                       # What write queue length does an incoming req see
system.mem_ctrl.wrQLenPdf::49                       0                       # What write queue length does an incoming req see
system.mem_ctrl.wrQLenPdf::50                       0                       # What write queue length does an incoming req see
system.mem_ctrl.wrQLenPdf::51                       0                       # What write queue length does an incoming req see
system.mem_ctrl.wrQLenPdf::52                       0                       # What write queue length does an incoming req see
system.mem_ctrl.wrQLenPdf::53                       0                       # What write queue length does an incoming req see
system.mem_ctrl.wrQLenPdf::54                       0                       # What write queue length does an incoming req see
system.mem_ctrl.wrQLenPdf::55                       0                       # What write queue length does an incoming req see
system.mem_ctrl.wrQLenPdf::56                       0                       # What write queue length does an incoming req see
system.mem_ctrl.wrQLenPdf::57                       0                       # What write queue length does an incoming req see
system.mem_ctrl.wrQLenPdf::58                       0                       # What write queue length does an incoming req see
system.mem_ctrl.wrQLenPdf::59                       0                       # What write queue length does an incoming req see
system.mem_ctrl.wrQLenPdf::60                       0                       # What write queue length does an incoming req see
system.mem_ctrl.wrQLenPdf::61                       0                       # What write queue length does an incoming req see
system.mem_ctrl.wrQLenPdf::62                       0                       # What write queue length does an incoming req see
system.mem_ctrl.wrQLenPdf::63                       0                       # What write queue length does an incoming req see
system.mem_ctrl.rdPerTurnAround::samples         9711                       # Reads before turning the bus around for writes
system.mem_ctrl.rdPerTurnAround::mean       35.898569                       # Reads before turning the bus around for writes
system.mem_ctrl.rdPerTurnAround::gmean      29.601494                       # Reads before turning the bus around for writes
system.mem_ctrl.rdPerTurnAround::stdev      62.957906                       # Reads before turning the bus around for writes
system.mem_ctrl.rdPerTurnAround::0-255           9690     99.78%     99.78% # Reads before turning the bus around for writes
system.mem_ctrl.rdPerTurnAround::256-511           12      0.12%     99.91% # Reads before turning the bus around for writes
system.mem_ctrl.rdPerTurnAround::512-767            3      0.03%     99.94% # Reads before turning the bus around for writes
system.mem_ctrl.rdPerTurnAround::768-1023            2      0.02%     99.96% # Reads before turning the bus around for writes
system.mem_ctrl.rdPerTurnAround::1024-1279            1      0.01%     99.97% # Reads before turning the bus around for writes
system.mem_ctrl.rdPerTurnAround::1280-1535            1      0.01%     99.98% # Reads before turning the bus around for writes
system.mem_ctrl.rdPerTurnAround::1792-2047            1      0.01%     99.99% # Reads before turning the bus around for writes
system.mem_ctrl.rdPerTurnAround::4864-5119            1      0.01%    100.00% # Reads before turning the bus around for writes
system.mem_ctrl.rdPerTurnAround::total           9711                       # Reads before turning the bus around for writes
system.mem_ctrl.wrPerTurnAround::samples         9711                       # Writes before turning the bus around for reads
system.mem_ctrl.wrPerTurnAround::mean       17.717434                       # Writes before turning the bus around for reads
system.mem_ctrl.wrPerTurnAround::gmean      17.703208                       # Writes before turning the bus around for reads
system.mem_ctrl.wrPerTurnAround::stdev       0.690873                       # Writes before turning the bus around for reads
system.mem_ctrl.wrPerTurnAround::16              1309     13.48%     13.48% # Writes before turning the bus around for reads
system.mem_ctrl.wrPerTurnAround::17               150      1.54%     15.02% # Writes before turning the bus around for reads
system.mem_ctrl.wrPerTurnAround::18              8228     84.73%     99.75% # Writes before turning the bus around for reads
system.mem_ctrl.wrPerTurnAround::19                24      0.25%    100.00% # Writes before turning the bus around for reads
system.mem_ctrl.wrPerTurnAround::total           9711                       # Writes before turning the bus around for reads
system.mem_ctrl.bytesReadWrQ                    11712                       # Total number of bytes read from write queue
system.mem_ctrl.bytesReadSys                 22325504                       # Total read bytes from the system interface side
system.mem_ctrl.bytesWrittenSys              11013312                       # Total written bytes from the system interface side
system.mem_ctrl.avgRdBWSys                     174.97                       # Average system read bandwidth in MiByte/s
system.mem_ctrl.avgWrBWSys                      86.31                       # Average system write bandwidth in MiByte/s
[...]
system.mem_ctrl.requestorReadRate::.cpu.data 172974685.116199195385                       # Per-requestor bytes read from memory rate (Bytes/sec)
system.mem_ctrl.requestorWriteRate::.writebacks 86298498.447149828076                       # Per-requestor bytes write to memory rate (Bytes/sec)
system.mem_ctrl.requestorReadAccesses::.cpu.inst         3792                       # Per-requestor read serviced memory accesses
system.mem_ctrl.requestorReadAccesses::.cpu.data       345044                       # Per-requestor read serviced memory accesses
system.mem_ctrl.requestorWriteAccesses::.writebacks       172083                       # Per-requestor write serviced memory accesses
system.mem_ctrl.requestorReadTotalLat::.cpu.inst    108943500                       # Per-requestor read total memory access latency
system.mem_ctrl.requestorReadTotalLat::.cpu.data   9068878000                       # Per-requestor read total memory access latency
system.mem_ctrl.requestorWriteTotalLat::.writebacks 3003906446750                       # Per-requestor write total memory access latency
system.mem_ctrl.requestorReadAvgLat::.cpu.inst     28729.83                       # Per-requestor read average memory access latency
system.mem_ctrl.requestorReadAvgLat::.cpu.data     26283.25                       # Per-requestor read average memory access latency
system.mem_ctrl.requestorWriteAvgLat::.writebacks  17456148.76                       # Per-requestor write average memory access latency
system.mem_ctrl.dram.bytes_read::.cpu.inst       242688                       # Number of bytes read from this memory
system.mem_ctrl.dram.bytes_read::.cpu.data     22082816                       # Number of bytes read from this memory
system.mem_ctrl.dram.bytes_read::total       22325504                       # Number of bytes read from this memory
system.mem_ctrl.dram.bytes_inst_read::.cpu.inst       242688                       # Number of instructions bytes read from this memory
system.mem_ctrl.dram.bytes_inst_read::total       242688                       # Number of instructions bytes read from this memory
system.mem_ctrl.dram.bytes_written::.writebacks     11013312                       # Number of bytes written to this memory
system.mem_ctrl.dram.bytes_written::total     11013312                       # Number of bytes written to this memory
system.mem_ctrl.dram.num_reads::.cpu.inst         3792                       # Number of read requests responded to by this memory
system.mem_ctrl.dram.num_reads::.cpu.data       345044                       # Number of read requests responded to by this memory
system.mem_ctrl.dram.num_reads::total          348836                       # Number of read requests responded to by this memory
system.mem_ctrl.dram.num_writes::.writebacks       172083                       # Number of write requests responded to by this memory
system.mem_ctrl.dram.num_writes::total         172083                       # Number of write requests responded to by this memory
system.mem_ctrl.dram.bw_read::.cpu.inst       1901984                       # Total read bandwidth from this memory (bytes/s)
system.mem_ctrl.dram.bw_read::.cpu.data     173066474                       # Total read bandwidth from this memory (bytes/s)
system.mem_ctrl.dram.bw_read::total         174968458                       # Total read bandwidth from this memory (bytes/s)
system.mem_ctrl.dram.bw_inst_read::.cpu.inst      1901984                       # Instruction read bandwidth from this memory (bytes/s)
system.mem_ctrl.dram.bw_inst_read::total      1901984                       # Instruction read bandwidth from this memory (bytes/s)
system.mem_ctrl.dram.bw_write::.writebacks     86313044                       # Write bandwidth from this memory (bytes/s)
system.mem_ctrl.dram.bw_write::total         86313044                       # Write bandwidth from this memory (bytes/s)
system.mem_ctrl.dram.bw_total::.writebacks     86313044                       # Total bandwidth to/from this memory (bytes/s)
system.mem_ctrl.dram.bw_total::.cpu.inst      1901984                       # Total bandwidth to/from this memory (bytes/s)
system.mem_ctrl.dram.bw_total::.cpu.data    173066474                       # Total bandwidth to/from this memory (bytes/s)
system.mem_ctrl.dram.bw_total::total        261281502                       # Total bandwidth to/from this memory (bytes/s)
system.mem_ctrl.dram.readBursts                348653                       # Number of DRAM read bursts
system.mem_ctrl.dram.writeBursts               172054                       # Number of DRAM write bursts
system.mem_ctrl.dram.perBankRdBursts::0         19526                       # Per bank write bursts
system.mem_ctrl.dram.perBankRdBursts::1         20099                       # Per bank write bursts
system.mem_ctrl.dram.perBankRdBursts::2         20826                       # Per bank write bursts
system.mem_ctrl.dram.perBankRdBursts::3         21909                       # Per bank write bursts
system.mem_ctrl.dram.perBankRdBursts::4         23824                       # Per bank write bursts
system.mem_ctrl.dram.perBankRdBursts::5         24024                       # Per bank write bursts
system.mem_ctrl.dram.perBankRdBursts::6         21867                       # Per bank write bursts
system.mem_ctrl.dram.perBankRdBursts::7         21797                       # Per bank write bursts
system.mem_ctrl.dram.perBankRdBursts::8         23140                       # Per bank write bursts
system.mem_ctrl.dram.perBankRdBursts::9         24437                       # Per bank write bursts
system.mem_ctrl.dram.perBankRdBursts::10        22203                       # Per bank write bursts
system.mem_ctrl.dram.perBankRdBursts::11        21862                       # Per bank write bursts
system.mem_ctrl.dram.perBankRdBursts::12        21815                       # Per bank write bursts
system.mem_ctrl.dram.perBankRdBursts::13        21322                       # Per bank write bursts
system.mem_ctrl.dram.perBankRdBursts::14        20267                       # Per bank write bursts
system.mem_ctrl.dram.perBankRdBursts::15        19735                       # Per bank write bursts
system.mem_ctrl.dram.perBankWrBursts::0          9798                       # Per bank write bursts
system.mem_ctrl.dram.perBankWrBursts::1          9961                       # Per bank write bursts
system.mem_ctrl.dram.perBankWrBursts::2          9975                       # Per bank write bursts
system.mem_ctrl.dram.perBankWrBursts::3         10313                       # Per bank write bursts
system.mem_ctrl.dram.perBankWrBursts::4         11195                       # Per bank write bursts
system.mem_ctrl.dram.perBankWrBursts::5         11299                       # Per bank write bursts
system.mem_ctrl.dram.perBankWrBursts::6         10547                       # Per bank write bursts
system.mem_ctrl.dram.perBankWrBursts::7         11025                       # Per bank write bursts
system.mem_ctrl.dram.perBankWrBursts::8         11526                       # Per bank write bursts
system.mem_ctrl.dram.perBankWrBursts::9         12004                       # Per bank write bursts
system.mem_ctrl.dram.perBankWrBursts::10        11174                       # Per bank write bursts
system.mem_ctrl.dram.perBankWrBursts::11        11052                       # Per bank write bursts
system.mem_ctrl.dram.perBankWrBursts::12        10911                       # Per bank write bursts
system.mem_ctrl.dram.perBankWrBursts::13        10836                       # Per bank write bursts
system.mem_ctrl.dram.perBankWrBursts::14        10351                       # Per bank write bursts
system.mem_ctrl.dram.perBankWrBursts::15        10087                       # Per bank write bursts
system.mem_ctrl.dram.totQLat               2640577750                       # Total ticks spent queuing
system.mem_ctrl.dram.totBusLat             1743265000                       # Total ticks spent in databus transfers
system.mem_ctrl.dram.totMemAccLat          9177821500                       # Total ticks spent from burst creation until serviced by the DRAM
system.mem_ctrl.dram.avgQLat                  7573.66                       # Average queueing delay per DRAM burst
system.mem_ctrl.dram.avgBusLat                5000.00                       # Average bus latency per DRAM burst
system.mem_ctrl.dram.avgMemAccLat            26323.66                       # Average memory access latency per DRAM burst
system.mem_ctrl.dram.readRowHits               299173                       # Number of row buffer hits during reads
system.mem_ctrl.dram.writeRowHits              144657                       # Number of row buffer hits during writes
system.mem_ctrl.dram.readRowHitRate             85.81                       # Row buffer hit rate for reads
system.mem_ctrl.dram.writeRowHitRate            84.08                       # Row buffer hit rate for writes
system.mem_ctrl.dram.bytesPerActivate::samples        76873                       # Bytes accessed per row activation
system.mem_ctrl.dram.bytesPerActivate::mean   433.500449                       # Bytes accessed per row activation
system.mem_ctrl.dram.bytesPerActivate::gmean   329.557219                       # Bytes accessed per row activation
system.mem_ctrl.dram.bytesPerActivate::stdev   285.360209                       # Bytes accessed per row activation
system.mem_ctrl.dram.bytesPerActivate::0-127         8483     11.04%     11.04% # Bytes accessed per row activation
system.mem_ctrl.dram.bytesPerActivate::128-255        12763     16.60%     27.64% # Bytes accessed per row activation
system.mem_ctrl.dram.bytesPerActivate::256-383        10508     13.67%     41.31% # Bytes accessed per row activation
system.mem_ctrl.dram.bytesPerActivate::384-511        15835     20.60%     61.91% # Bytes accessed per row activation
system.mem_ctrl.dram.bytesPerActivate::512-639        14407     18.74%     80.65% # Bytes accessed per row activation
system.mem_ctrl.dram.bytesPerActivate::640-767         2774      3.61%     84.26% # Bytes accessed per row activation
system.mem_ctrl.dram.bytesPerActivate::768-895         2299      2.99%     87.25% # Bytes accessed per row activation
system.mem_ctrl.dram.bytesPerActivate::896-1023         1948      2.53%     89.78% # Bytes accessed per row activation
system.mem_ctrl.dram.bytesPerActivate::1024-1151         7856     10.22%    100.00% # Bytes accessed per row activation
system.mem_ctrl.dram.bytesPerActivate::total        76873                       # Bytes accessed per row activation
system.mem_ctrl.dram.bytesRead               22313792                       # Total number of bytes read from DRAM
system.mem_ctrl.dram.bytesWritten            11011456                       # Total number of bytes written to DRAM
system.mem_ctrl.dram.avgRdBW               174.876669                       # Average DRAM read bandwidth in MiBytes/s
system.mem_ctrl.dram.avgWrBW                86.298498                       # Average DRAM write bandwidth in MiBytes/s
system.mem_ctrl.dram.peakBW                  12800.00                       # Theoretical peak bandwidth in MiByte/s
system.mem_ctrl.dram.busUtil                     2.04                       # Data bus utilization in percentage
system.mem_ctrl.dram.busUtilRead                 1.37                       # Data bus utilization in percentage for reads
system.mem_ctrl.dram.busUtilWrite                0.67                       # Data bus utilization in percentage for writes
system.mem_ctrl.dram.pageHitRate                85.24                       # Row buffer hit rate, read and write combined
system.mem_ctrl.dram.power_state.pwrStateResidencyTicks::UNDEFINED 127597307000                       # Cumulative time (in ticks) in various power states
system.mem_ctrl.dram.rank0.actEnergy        275761080                       # Energy for activate commands per rank (pJ)
system.mem_ctrl.dram.rank0.preEnergy        146562900                       # Energy for precharge commands per rank (pJ)
system.mem_ctrl.dram.rank0.readEnergy      1241446080                       # Energy for read commands per rank (pJ)
system.mem_ctrl.dram.rank0.writeEnergy      439069860                       # Energy for write commands per rank (pJ)
system.mem_ctrl.dram.rank0.refreshEnergy 10072105680.000002                       # Energy for refresh commands per rank (pJ)
system.mem_ctrl.dram.rank0.actBackEnergy  43765304520                       # Energy for active background per rank (pJ)
system.mem_ctrl.dram.rank0.preBackEnergy  12142372800                       # Energy for precharge background per rank (pJ)
system.mem_ctrl.dram.rank0.actPowerDownEnergy            0                       # Energy for active power-down per rank (pJ)
system.mem_ctrl.dram.rank0.prePowerDownEnergy            0                       # Energy for precharge power-down per rank (pJ)
system.mem_ctrl.dram.rank0.selfRefreshEnergy            0                       # Energy for self refresh per rank (pJ)
system.mem_ctrl.dram.rank0.totalEnergy    68082622920                       # Total energy per rank (pJ)
system.mem_ctrl.dram.rank0.averagePower    533.574137                       # Core power per rank (mW)
system.mem_ctrl.dram.rank0.totalIdleTime            0                       # Total Idle time Per DRAM Rank
system.mem_ctrl.dram.rank0.pwrStateTime::IDLE  31178870500                       # Time in different power states
system.mem_ctrl.dram.rank0.pwrStateTime::REF   4260620000                       # Time in different power states
system.mem_ctrl.dram.rank0.pwrStateTime::SREF            0                       # Time in different power states
system.mem_ctrl.dram.rank0.pwrStateTime::PRE_PDN            0                       # Time in different power states
system.mem_ctrl.dram.rank0.pwrStateTime::ACT  92157816500                       # Time in different power states
system.mem_ctrl.dram.rank0.pwrStateTime::ACT_PDN            0                       # Time in different power states
system.mem_ctrl.dram.rank1.actEnergy        273140700                       # Energy for activate commands per rank (pJ)
system.mem_ctrl.dram.rank1.preEnergy        145170135                       # Energy for precharge commands per rank (pJ)
system.mem_ctrl.dram.rank1.readEnergy      1247936340                       # Energy for read commands per rank (pJ)
system.mem_ctrl.dram.rank1.writeEnergy      459052020                       # Energy for write commands per rank (pJ)
system.mem_ctrl.dram.rank1.refreshEnergy 10072105680.000002                       # Energy for refresh commands per rank (pJ)
system.mem_ctrl.dram.rank1.actBackEnergy  43583316630                       # Energy for active background per rank (pJ)
system.mem_ctrl.dram.rank1.preBackEnergy  12295625760                       # Energy for precharge background per rank (pJ)
system.mem_ctrl.dram.rank1.actPowerDownEnergy            0                       # Energy for active power-down per rank (pJ)
system.mem_ctrl.dram.rank1.prePowerDownEnergy            0                       # Energy for precharge power-down per rank (pJ)
system.mem_ctrl.dram.rank1.selfRefreshEnergy            0                       # Energy for self refresh per rank (pJ)
system.mem_ctrl.dram.rank1.totalEnergy    68076347265                       # Total energy per rank (pJ)
system.mem_ctrl.dram.rank1.averagePower    533.524953                       # Core power per rank (mW)
system.mem_ctrl.dram.rank1.totalIdleTime            0                       # Total Idle time Per DRAM Rank
system.mem_ctrl.dram.rank1.pwrStateTime::IDLE  31582566000                       # Time in different power states
system.mem_ctrl.dram.rank1.pwrStateTime::REF   4260620000                       # Time in different power states
system.mem_ctrl.dram.rank1.pwrStateTime::SREF            0                       # Time in different power states
system.mem_ctrl.dram.rank1.pwrStateTime::PRE_PDN            0                       # Time in different power states
system.mem_ctrl.dram.rank1.pwrStateTime::ACT  91754121000                       # Time in different power states
system.mem_ctrl.dram.rank1.pwrStateTime::ACT_PDN            0                       # Time in different power states
system.mem_ctrl.power_state.pwrStateResidencyTicks::UNDEFINED 127597307000                       # Cumulative time (in ticks) in various power states
system.membus.trans_dist::ReadResp             236933                       # Transaction distribution
system.membus.trans_dist::WritebackDirty       172083                       # Transaction distribution
system.membus.trans_dist::CleanEvict           172644                       # Transaction distribution
system.membus.trans_dist::ReadExReq            111903                       # Transaction distribution
system.membus.trans_dist::ReadExResp           111903                       # Transaction distribution
system.membus.trans_dist::ReadSharedReq        236933                       # Transaction distribution
system.membus.pkt_count_system.l2cache.mem_side_port::system.mem_ctrl.port      1042399                       # Packet count per connected requestor and responder (bytes)
system.membus.pkt_count_system.l2cache.mem_side_port::total      1042399                       # Packet count per connected requestor and responder (bytes)
system.membus.pkt_count::total                1042399                       # Packet count per connected requestor and responder (bytes)
system.membus.pkt_size_system.l2cache.mem_side_port::system.mem_ctrl.port     33338816                       # Cumulative packet size per connected requestor and responder (bytes)
system.membus.pkt_size_system.l2cache.mem_side_port::total     33338816                       # Cumulative packet size per connected requestor and responder (bytes)
system.membus.pkt_size::total                33338816                       # Cumulative packet size per connected requestor and responder (bytes)
system.membus.snoops                                0                       # Total snoops (count)
system.membus.snoopTraffic                          0                       # Total snoop traffic (bytes)
system.membus.snoop_fanout::samples            348836                       # Request fanout histogram
system.membus.snoop_fanout::mean                    0                       # Request fanout histogram
system.membus.snoop_fanout::stdev                   0                       # Request fanout histogram
system.membus.snoop_fanout::underflows              0      0.00%      0.00% # Request fanout histogram
system.membus.snoop_fanout::0                  348836    100.00%    100.00% # Request fanout histogram
system.membus.snoop_fanout::1                       0      0.00%    100.00% # Request fanout histogram
system.membus.snoop_fanout::overflows               0      0.00%    100.00% # Request fanout histogram
system.membus.snoop_fanout::min_value               0                       # Request fanout histogram
system.membus.snoop_fanout::max_value               0                       # Request fanout histogram
system.membus.snoop_fanout::total              348836                       # Request fanout histogram
system.membus.power_state.pwrStateResidencyTicks::UNDEFINED 127597307000                       # Cumulative time (in ticks) in various power states
system.membus.reqLayer2.occupancy          1381895000                       # Layer occupancy (ticks)
system.membus.reqLayer2.utilization               1.1                       # Layer utilization (%)
system.membus.respLayer0.occupancy         1843320000                       # Layer occupancy (ticks)
system.membus.respLayer0.utilization              1.4                       # Layer utilization (%)

---------- End Simulation Statistics   ----------
